*SPEF "IEEE 1481-1999"
*DESIGN "MULTIPLIER_routed"
*DATE "Tue May 24 18:05:14 2022"
*VENDOR "Synopsys Inc."
*PROGRAM "StarRC"
*VERSION "O-2018.06-SP4"
*DESIGN_FLOW "PIN_CAP NONE" "NAME_SCOPE LOCAL"
*DIVIDER /
*DELIMITER :
*BUS_DELIMITER []
*T_UNIT 1.0 NS
*C_UNIT 1.0 FF
*R_UNIT 1.0 OHM
*L_UNIT 1.0 HENRY

// COMMENTS

// OPERATING_TEMPERATURE 25
// GLOBAL_TEMPERATURE 25
// TCAD_GRD_FILE ../../lib/saed32nm_1p9m_nominal.nxtgrd
//   TCAD_TIME_STAMP Wed Mar 16 14:34:54 2011
//   TCADGRD_VERSION 72
// galaxy_comments_begin
//   local_nodeid
// galaxy_comments_end

*NAME_MAP
*374 done
*375 start
*376 rst_n
*377 clk
*378 M[15]
*379 M[14]
*380 M[13]
*381 M[12]
*382 M[11]
*383 M[10]
*384 M[9]
*385 M[8]
*386 M[7]
*387 M[6]
*388 M[5]
*389 M[4]
*390 M[3]
*391 M[2]
*392 M[1]
*393 M[0]
*394 B[7]
*395 B[6]
*396 B[5]
*397 B[4]
*398 B[3]
*399 B[2]
*400 B[1]
*401 B[0]
*402 A[7]
*403 A[6]
*404 A[5]
*405 A[4]
*406 A[3]
*407 A[2]
*408 A[1]
*409 A[0]
*410 M_reg_0_
*411 M_reg_10_
*412 M_reg_11_
*413 M_reg_12_
*414 M_reg_13_
*415 M_reg_14_
*416 M_reg_15_
*417 M_reg_1_
*418 M_reg_2_
*419 M_reg_3_
*420 M_reg_4_
*421 M_reg_5_
*422 M_reg_6_
*423 M_reg_7_
*424 M_reg_8_
*425 M_reg_9_
*426 U1
*427 U10
*428 U100
*429 U101
*430 U102
*431 U103
*432 U105
*433 U106
*434 U107
*435 U108
*436 U109
*437 U11
*438 U110
*439 U111
*440 U113
*441 U114
*442 U115
*443 U116
*444 U117
*445 U118
*446 U119
*447 U12
*448 U120
*449 U121
*450 U122
*451 U123
*452 U124
*453 U125
*454 U126
*455 U127
*456 U128
*457 U129
*458 U13
*459 U133
*460 U134
*461 U135
*462 U136
*463 U137
*464 U138
*465 U139
*466 U14
*467 U140
*468 U141
*469 U142
*470 U143
*471 U144
*472 U145
*473 U146
*474 U147
*475 U148
*476 U15
*477 U153
*478 U154
*479 U155
*480 U156
*481 U157
*482 U158
*483 U159
*484 U16
*485 U160
*486 U161
*487 U162
*488 U163
*489 U164
*490 U165
*491 U166
*492 U167
*493 U168
*494 U169
*495 U17
*496 U170
*497 U171
*498 U172
*499 U173
*500 U174
*501 U175
*502 U176
*503 U177
*504 U178
*505 U179
*506 U180
*507 U181
*508 U182
*509 U183
*510 U184
*511 U185
*512 U186
*513 U187
*514 U188
*515 U189
*516 U190
*517 U191
*518 U192
*519 U193
*520 U195
*521 U196
*522 U197
*523 U198
*524 U199
*525 U2
*526 U200
*527 U201
*528 U202
*529 U203
*530 U204
*531 U205
*532 U206
*533 U207
*534 U208
*535 U209
*536 U210
*537 U211
*538 U212
*539 U26
*540 U28
*541 U3
*542 U30
*543 U32
*544 U34
*545 U36
*546 U38
*547 U4
*548 U45
*549 U47
*550 U49
*551 U5
*552 U50
*553 U52
*554 U53
*555 U54
*556 U55
*557 U56
*558 U57
*559 U58
*560 U59
*561 U6
*562 U60
*563 U61
*564 U62
*565 U64
*566 U65
*567 U66
*568 U68
*569 U7
*570 U71
*571 U73
*572 U74
*573 U76
*574 U79
*575 U8
*576 U80
*577 U81
*578 U82
*579 U84
*580 U86
*581 U87
*582 U88
*583 U89
*584 U9
*585 U90
*586 U91
*587 U92
*588 U93
*589 U94
*590 U95
*591 U96
*592 U97
*593 U98
*594 U99
*595 add_0_root_add_61_ni/U1
*596 add_0_root_add_61_ni/U1_1_1
*597 add_0_root_add_61_ni/U1_1_2
*598 add_0_root_add_61_ni/U1_1_3
*599 add_0_root_add_61_ni/U1_1_4
*600 add_0_root_add_61_ni/U1_1_5
*601 add_0_root_add_61_ni/U1_1_6
*602 add_0_root_add_61_ni/U2
*603 add_0_root_add_63_ni/U1
*604 add_0_root_add_63_ni/U1_1_1
*605 add_0_root_add_63_ni/U1_1_2
*606 add_0_root_add_63_ni/U1_1_3
*607 add_0_root_add_63_ni/U1_1_4
*608 add_0_root_add_63_ni/U1_1_5
*609 add_0_root_add_63_ni/U1_1_6
*610 add_0_root_add_63_ni/U2
*611 add_0_root_add_82_ni/U1
*612 add_0_root_add_82_ni/U1_1_1
*613 add_0_root_add_82_ni/U1_1_10
*614 add_0_root_add_82_ni/U1_1_11
*615 add_0_root_add_82_ni/U1_1_12
*616 add_0_root_add_82_ni/U1_1_13
*617 add_0_root_add_82_ni/U1_1_14
*618 add_0_root_add_82_ni/U1_1_2
*619 add_0_root_add_82_ni/U1_1_3
*620 add_0_root_add_82_ni/U1_1_4
*621 add_0_root_add_82_ni/U1_1_5
*622 add_0_root_add_82_ni/U1_1_6
*623 add_0_root_add_82_ni/U1_1_7
*624 add_0_root_add_82_ni/U1_1_8
*625 add_0_root_add_82_ni/U1_1_9
*626 add_0_root_add_82_ni/U2
*627 add_72/U1
*628 add_72/U1_1
*629 add_72/U1_2
*630 add_72/U1_3
*631 add_72/U1_4
*632 add_72/U1_5
*633 add_72/U1_6
*634 add_72/U2
*635 add_72/U3
*636 bufbd1_G1B1I1
*637 bufbda_G2B3I1
*638 count_reg_0_
*639 count_reg_1_
*640 count_reg_2_
*641 cur_state_reg_0_
*642 cur_state_reg_1_
*643 done_reg
*644 multiplicand_reg_0_
*645 multiplicand_reg_1_
*646 multiplicand_reg_2_
*647 multiplicand_reg_3_
*648 multiplicand_reg_4_
*649 multiplicand_reg_5_
*650 multiplicand_reg_6_
*651 multiplicand_reg_7_
*652 next_state_reg_0_
*653 next_state_reg_1_
*654 product_reg_0_
*655 product_reg_10_
*656 product_reg_11_
*657 product_reg_12_
*658 product_reg_13_
*659 product_reg_14_
*660 product_reg_1_
*661 product_reg_2_
*662 product_reg_3_
*663 product_reg_4_
*664 product_reg_5_
*665 product_reg_6_
*666 product_reg_7_
*667 product_reg_8_
*668 product_reg_9_
*669 signed_bit_reg
*1 done
*2 start
*3 rst_n
*4 clk
*5 M[15]
*6 M[14]
*7 M[13]
*8 M[12]
*9 M[11]
*10 M[10]
*11 M[9]
*12 M[8]
*13 M[7]
*14 M[6]
*15 M[5]
*16 M[4]
*17 M[3]
*18 M[2]
*19 M[1]
*20 M[0]
*21 B[7]
*22 B[6]
*23 B[5]
*24 B[4]
*25 B[3]
*26 B[2]
*27 B[1]
*28 B[0]
*29 A[7]
*30 A[6]
*31 A[5]
*32 A[4]
*33 A[3]
*34 A[2]
*35 A[1]
*36 A[0]
*43 N100
*44 N101
*45 N102
*46 N103
*47 N104
*48 N105
*49 N106
*50 N107
*51 N108
*52 N109
*53 N110
*54 N111
*55 N112
*56 N113
*57 N115
*58 N116
*59 N117
*60 N118
*61 N119
*62 N120
*63 N121
*64 N122
*65 N123
*66 N124
*67 N125
*68 N126
*69 N127
*70 N128
*71 N129
*72 N130
*73 N14
*74 N15
*75 N27
*76 N28
*77 N29
*78 N30
*79 N31
*80 N32
*81 N33
*82 N34
*83 N35
*84 N36
*85 N37
*86 N38
*87 N39
*88 N40
*89 N41
*90 N42
*91 N52
*92 N53
*93 N54
*94 N55
*95 N56
*96 N57
*97 N58
*98 N59
*99 N60
*100 N61
*101 N62
*102 N63
*103 N64
*104 N65
*105 N66
*106 N67
*107 N78
*108 N79
*109 N80
*110 N81
*111 N82
*112 N83
*113 N84
*114 N85
*149 add_0_root_add_61_ni/carry[2]
*150 add_0_root_add_61_ni/carry[3]
*151 add_0_root_add_61_ni/carry[4]
*152 add_0_root_add_61_ni/carry[5]
*153 add_0_root_add_61_ni/carry[6]
*154 add_0_root_add_61_ni/carry[7]
*155 add_0_root_add_63_ni/carry[2]
*156 add_0_root_add_63_ni/carry[3]
*157 add_0_root_add_63_ni/carry[4]
*158 add_0_root_add_63_ni/carry[5]
*159 add_0_root_add_63_ni/carry[6]
*160 add_0_root_add_63_ni/carry[7]
*161 add_0_root_add_82_ni/carry[10]
*162 add_0_root_add_82_ni/carry[11]
*163 add_0_root_add_82_ni/carry[12]
*164 add_0_root_add_82_ni/carry[13]
*165 add_0_root_add_82_ni/carry[14]
*166 add_0_root_add_82_ni/carry[15]
*167 add_0_root_add_82_ni/carry[2]
*168 add_0_root_add_82_ni/carry[3]
*169 add_0_root_add_82_ni/carry[4]
*170 add_0_root_add_82_ni/carry[5]
*171 add_0_root_add_82_ni/carry[6]
*172 add_0_root_add_82_ni/carry[7]
*173 add_0_root_add_82_ni/carry[8]
*174 add_0_root_add_82_ni/carry[9]
*175 add_72/carry[2]
*176 add_72/carry[3]
*177 add_72/carry[4]
*178 add_72/carry[5]
*179 add_72/carry[6]
*180 add_72/carry[7]
*181 add_72/n1
*186 clk_G1B1I1
*187 count[0]
*188 count[1]
*189 count[2]
*190 cur_state[0]
*191 cur_state[1]
*194 multiplicand[0]
*195 multiplicand[1]
*196 multiplicand[2]
*197 multiplicand[3]
*198 multiplicand[4]
*199 multiplicand[5]
*200 multiplicand[6]
*201 multiplicand[7]
*202 n1
*203 n10
*204 n100
*205 n101
*206 n102
*207 n103
*208 n104
*209 n106
*210 n107
*211 n108
*212 n109
*213 n11
*214 n110
*215 n111
*216 n112
*217 n113
*218 n114
*219 n115
*220 n116
*221 n117
*222 n118
*223 n119
*224 n120
*225 n121
*226 n122
*227 n123
*228 n124
*229 n125
*230 n126
*231 n127
*232 n128
*233 n129
*234 n13
*235 n130
*236 n131
*237 n132
*238 n133
*239 n141
*240 n142
*241 n146
*242 n147
*243 n148
*244 n150
*245 n151
*246 n152
*247 n153
*248 n154
*249 n156
*250 n158
*251 n16
*252 n160
*253 n162
*254 n164
*255 n166
*256 n167
*257 n168
*258 n169
*259 n17
*260 n170
*261 n171
*262 n172
*263 n173
*264 n174
*265 n175
*266 n176
*267 n177
*268 n179
*269 n18
*270 n180
*271 n181
*272 n184
*273 n185
*274 n186
*275 n19
*276 n2
*277 n20
*278 n21
*279 n22
*280 n24
*281 n25
*282 n26
*283 n27
*284 n28
*285 n29
*286 n3
*287 n30
*288 n31
*289 n32
*290 n33
*291 n34
*292 n35
*293 n36
*294 n38
*295 n39
*296 n4
*297 n40
*298 n42
*299 n43
*300 n44
*301 n45
*302 n46
*303 n47
*304 n48
*305 n49
*306 n5
*307 n50
*308 n51
*309 n52
*310 n53
*311 n54
*312 n55
*313 n56
*314 n57
*315 n58
*316 n59
*317 n60
*318 n61
*319 n62
*320 n63
*321 n64
*322 n65
*323 n66
*324 n67
*325 n68
*326 n69
*327 n7
*328 n70
*329 n71
*330 n72
*331 n73
*332 n74
*333 n75
*334 n76
*335 n77
*336 n78
*337 n79
*338 n8
*339 n80
*340 n81
*341 n82
*342 n83
*343 n84
*344 n87
*345 n87_G2B1I1
*346 n88
*347 n90
*348 n91
*349 n92
*350 n93
*351 n94
*352 n95
*353 n96
*354 n98
*355 n99
*356 net1402
*357 next_state[0]
*358 next_state[1]
*359 product[10]
*360 product[11]
*361 product[12]
*362 product[13]
*363 product[14]
*364 product[1]
*365 product[2]
*366 product[3]
*367 product[4]
*368 product[5]
*369 product[6]
*370 product[7]
*371 product[8]
*372 product[9]
*373 signed_bit

*PORTS

*374 O
*375 I
*376 I
*377 I
*378 O
*379 O
*380 O
*381 O
*382 O
*383 O
*384 O
*385 O
*386 O
*387 O
*388 O
*389 O
*390 O
*391 O
*392 O
*393 O
*394 I
*395 I
*396 I
*397 I
*398 I
*399 I
*400 I
*401 I
*402 I
*403 I
*404 I
*405 I
*406 I
*407 I
*408 I
*409 I

// *LAYER_MAP

// *0 SUBSTRATE
// *1 CP    ITF=POLY
// *2 METAL    ITF=M1
// *3 METAL2    ITF=M2
// *4 METAL3    ITF=M3
// *5 METAL4    ITF=M4
// *6 METAL5    ITF=M5
// *7 METAL6    ITF=M6
// *8 CONT    ITF=POLYCONT
// *9 VIA    ITF=VIA1
// *10 VIA2    ITF=VIA2
// *11 VIA3    ITF=VIA3
// *12 VIA4    ITF=VIA4
// *13 VIA5    ITF=VIA5

*D_NET *1 2.21326

*CONN
*P *374 O *C 0.050 2.255
*I *581:ZN O *D invbdk *C 15.845 8.405

*CAP
1 *374 1.34392
2 *1:2 0.869346

*RES
1 *374 *1:2 6.29006
2 *581:ZN *1:2 0.25
*END

*D_NET *2 1.72607

*CONN
*P *375 I *C 0.100 14.095
*I *572:A1 I *C 5.945 27.265

*CAP
1 *375 0.362487
2 *572:A1 0.33521
3 *2:2 1.02837
4 *2:3 0.0

*RES
1 *375 *2:2 3.07513
2 *572:A1 *2:2 7.301
3 *572:A1 *2:3 0.001
*END

*D_NET *3 0.405138

*CONN
*P *376 I *C 0.100 25.985
*I *426:I I *C 1.712 23.985

*CAP
1 *426:I 0.0707924
2 *3:2 0.334345
3 *3:3 0.0

*RES
1 *376 *3:2 1.0
2 *426:I *3:2 1.01263
3 *426:I *3:3 0.001
*END

*D_NET *4 4.86702

*CONN
*P *377 I *C 0.050 37.925
*I *580:I I *C 48.042 38.745
*I *636:I I *C 33.760 38.775

*CAP
1 *377 0.733169
2 *580:I 0.261934
3 *636:I 0.149018
4 *4:4 3.7229

*RES
1 *377 *4:4 8.53244
2 *580:I *4:3 0.001
3 *580:I *4:4 3.74632
4 *636:I *4:4 0.292567
*END

*D_NET *5 3.48156

*CONN
*P *378 O *C 2.255 0.050
*I *476:ZN O *D invbdk *C 16.195 1.590

*CAP
1 *378 0.0993734
2 *476:ZN 1.52046
3 *5:3 1.86173

*RES
1 *378 *5:3 0.557126
2 *476:ZN *5:2 0.001
3 *476:ZN *5:3 9.45557
*END

*D_NET *6 3.79469

*CONN
*P *379 O *C 14.145 0.050
*I *535:C1 I *C 19.475 21.115
*I *579:ZN O *D invbdk *C 16.515 13.310

*CAP
1 *379 1.12447
2 *535:C1 0.963135
3 *579:ZN 0.0725797
4 *6:3 0.242154
5 *6:6 1.39235

*RES
1 *379 *6:3 7.16975
2 *535:C1 *6:4 0.001
3 *535:C1 *6:6 7.61741
4 *579:ZN *6:3 0.50625
5 *579:ZN *6:5 0.457554
6 *6:5 *6:6 0.0692521
*END

*D_NET *7 0.748947

*CONN
*P *380 O *C 26.035 0.050
*I *436:ZN O *D invbdk *C 22.875 5.905

*CAP
1 *380 0.408675
2 *436:ZN 0.101128
3 *7:2 0.239144

*RES
1 *380 *7:2 3.68475
2 *436:ZN *7:2 0.4875
*END

*D_NET *8 0.693838

*CONN
*P *381 O *C 37.925 0.050
*I *434:ZN O *D invbdk *C 37.925 8.815

*CAP
1 *8:3 0.693838

*RES
1 *381 *8:3 4.235
2 *434:ZN *8:2 0.001
3 *434:ZN *8:3 0.0692521
*END

*D_NET *9 0.0771251

*CONN
*P *382 O *C 49.815 0.100
*I *432:ZN O *D invbdk *C 49.815 1.435

*CAP
1 *382 0.0325724
2 *9:3 0.0445527

*RES
1 *382 *9:3 0.52
2 *432:ZN *9:2 0.001
3 *432:ZN *9:3 0.0692521
*END

*D_NET *10 0.329477

*CONN
*P *383 O *C 61.705 0.100
*I *431:ZN O *D invbdk *C 63.815 1.025

*CAP
1 *383 0.10241
2 *10:2 0.227066

*RES
1 *383 *10:2 0.568002
2 *431:ZN *10:2 1.275
*END

*D_NET *11 0.13339

*CONN
*P *384 O *C 73.595 0.050
*I *453:ZN O *D invbdk *C 73.595 1.590

*CAP
1 *11:3 0.13339

*RES
1 *384 *11:3 0.6225
2 *453:ZN *11:2 0.001
3 *453:ZN *11:3 0.0692521
*END

*D_NET *12 0.68478

*CONN
*P *385 O *C 85.485 0.050
*I *451:ZN O *D invbdk *C 85.485 8.815

*CAP
1 *12:3 0.68478

*RES
1 *385 *12:3 4.235
2 *451:ZN *12:2 0.001
3 *451:ZN *12:3 0.0692521
*END

*D_NET *13 0.737691

*CONN
*P *386 O *C 97.375 0.050
*I *466:ZN O *D invbdk *C 97.375 8.815

*CAP
1 *13:3 0.737691

*RES
1 *386 *13:3 4.235
2 *466:ZN *13:2 0.001
3 *466:ZN *13:3 0.0692521
*END

*D_NET *14 0.392052

*CONN
*P *387 O *C 99.527 2.255
*I *457:ZN O *D invbdk *C 98.285 5.930

*CAP
1 *387 0.31923
2 *14:2 0.0728214

*RES
1 *387 *14:2 1.82013
2 *457:ZN *14:2 0.25
*END

*D_NET *15 0.254717

*CONN
*P *388 O *C 99.530 14.095
*I *456:ZN O *D invbdk *C 98.605 16.195

*CAP
1 *388 0.203555
2 *15:3 0.0511619

*RES
1 *388 *15:3 1.58338
2 *456:ZN *15:2 0.001
3 *456:ZN *15:3 0.0692521
*END

*D_NET *16 0.306534

*CONN
*P *389 O *C 99.530 25.985
*I *455:ZN O *D invbdk *C 98.285 23.590

*CAP
1 *389 0.198452
2 *16:2 0.108082

*RES
1 *389 *16:2 1.38638
2 *455:ZN *16:2 0.25
*END

*D_NET *17 0.524374

*CONN
*P *390 O *C 99.480 37.925
*I *454:ZN O *D invbdk *C 98.605 42.435

*CAP
1 *390 0.0869897
2 *17:3 0.437384

*RES
1 *390 *17:3 2.65588
2 *454:ZN *17:2 0.001
3 *454:ZN *17:3 0.0692521
*END

*D_NET *18 0.368016

*CONN
*P *391 O *C 99.527 49.815
*I *439:ZN O *D invbdk *C 98.285 53.110

*CAP
1 *391 0.290403
2 *18:2 0.0776135

*RES
1 *391 *18:2 1.61513
2 *439:ZN *18:2 0.25
*END

*D_NET *19 0.549938

*CONN
*P *392 O *C 99.530 61.655
*I *445:ZN O *D invbdk *C 98.285 67.870

*CAP
1 *392 0.386444
2 *19:2 0.163494

*RES
1 *392 *19:2 3.07513
2 *445:ZN *19:2 0.25
*END

*D_NET *20 0.202664

*CONN
*P *393 O *C 99.530 73.595
*I *449:ZN O *D invbdk *C 98.605 72.365

*CAP
1 *393 0.059129
2 *20:3 0.143535

*RES
1 *393 *20:3 1.04088
2 *449:ZN *20:2 0.001
3 *449:ZN *20:3 0.0692521
*END

*D_NET *21 6.14283

*CONN
*P *394 I *C 99.480 85.485
*I *487:I I *C 83.845 86.715
*I *547:A1 I *C 48.585 91.225
*I *552:A1 I *C 51.865 87.125
*I *554:A2 I *C 54.325 90.405

*CAP
1 *394 1.43844
2 *487:I 0.00988286
3 *547:A1 0.561821
4 *554:A2 0.0621386
5 *21:7 1.17739
6 *21:10 0.709118
7 *21:11 2.18404

*RES
1 *394 *21:11 7.7925
2 *487:I *21:9 0.001
3 *487:I *21:11 0.795128
4 *547:A1 *21:5 0.001
5 *547:A1 *21:10 2.67638
6 *552:A1 *21:6 0.001
7 *552:A1 *21:7 0.0692521
8 *554:A2 *21:8 0.001
9 *554:A2 *21:10 1.44763
10 *21:7 *21:10 1.62463
11 *21:7 *21:11 16.8371
*END

*D_NET *22 2.15558

*CONN
*P *395 I *C 99.480 97.375
*I *474:I I *C 96.940 94.095
*I *503:C1 I *C 89.175 86.305

*CAP
1 *395 0.108256
2 *474:I 0.013359
3 *503:C1 1.41492
4 *22:4 0.619046

*RES
1 *395 *22:4 2.39338
2 *474:I *22:4 0.722377
3 *503:C1 *22:3 0.001
4 *503:C1 *22:4 8.656
*END

*D_NET *23 1.63174

*CONN
*P *396 I *C 97.375 99.480
*I *472:I I *C 96.145 97.785
*I *502:C1 I *C 94.505 86.305

*CAP
1 *396 1.03561
2 *472:I 0.17227
3 *502:C1 0.354234
4 *23:5 0.0696245

*RES
1 *396 *23:5 0.4375
2 *472:I *23:4 0.001
3 *472:I *23:5 1.31225
4 *502:C1 *23:3 0.001
5 *502:C1 *23:5 7.91225
*END

*D_NET *24 1.00306

*CONN
*P *397 I *C 85.485 99.480
*I *470:I I *C 84.665 97.785
*I *501:C1 I *C 84.665 90.815

*CAP
1 *397 0.26446
2 *501:C1 0.632132
3 *24:5 0.106471

*RES
1 *397 *24:5 1.64425
2 *470:I *24:4 0.001
3 *470:I *24:5 0.310502
4 *501:C1 *24:3 0.001
5 *501:C1 *24:5 3.3855
*END

*D_NET *25 1.62113

*CONN
*P *398 I *C 73.595 99.480
*I *468:I I *C 75.645 97.785
*I *500:C1 I *C 80.565 90.815

*CAP
1 *398 0.47304
2 *468:I 0.116593
3 *500:C1 0.830817
4 *25:5 0.200679

*RES
1 *398 *25:5 1.57338
2 *468:I *25:3 0.001
3 *468:I *25:5 0.590128
4 *500:C1 *25:4 0.001
5 *500:C1 *25:5 6.57138
*END

*D_NET *26 1.82354

*CONN
*P *399 I *C 61.705 99.480
*I *465:I I *C 64.165 97.785
*I *499:C1 I *C 70.725 90.815

*CAP
1 *399 0.327327
2 *499:C1 0.741169
3 *26:4 0.755047
4 *26:5 0.0

*RES
1 *399 *26:4 2.25925
2 *465:I *26:3 0.001
3 *465:I *26:4 0.0692521
4 *499:C1 *26:4 7.056
5 *499:C1 *26:5 0.001
*END

*D_NET *27 2.82064

*CONN
*P *400 I *C 49.815 99.480
*I *463:I I *C 49.815 97.785
*I *496:C1 I *C 65.395 86.305

*CAP
1 *400 0.184172
2 *496:C1 1.31266
3 *27:5 1.32381

*RES
1 *400 *27:5 0.4375
2 *463:I *27:3 0.001
3 *463:I *27:5 0.515502
4 *496:C1 *27:4 0.001
5 *496:C1 *27:5 14.449
*END

*D_NET *28 4.42726

*CONN
*P *401 I *C 37.925 99.480
*I *498:B1 I *C 64.655 79.010
*I *537:I I *C 50.225 83.025

*CAP
1 *401 1.87008
2 *498:B1 0.0230178
3 *28:4 2.03962
4 *28:5 0.494539

*RES
1 *401 *28:4 14.473
2 *498:B1 *28:5 0.133198
3 *537:I *28:3 0.001
4 *537:I *28:4 0.0692521
5 *28:4 *28:5 10.464
*END

*D_NET *29 3.46666

*CONN
*P *402 I *C 26.035 99.480
*I *483:I I *C 36.310 90.320
*I *547:A2 I *C 51.045 89.995
*I *564:A2 I *C 32.595 90.405
*I *565:A1 I *C 34.618 89.995

*CAP
1 *402 0.707494
2 *483:I 0.095703
3 *547:A2 0.119274
4 *564:A2 0.108433
5 *565:A1 0.0240248
6 *29:5 0.64263
7 *29:6 1.65523
8 *29:10 0.113876

*RES
1 *402 *29:5 7.51838
2 *483:I *29:6 0.550128
3 *483:I *29:8 0.001
4 *483:I *29:10 0.232269
5 *547:A2 *29:6 8.21138
6 *547:A2 *29:9 0.001
7 *564:A2 *29:5 0.590128
8 *564:A2 *29:7 0.001
9 *565:A1 *29:10 0.990625
10 *29:5 *29:6 1.7775
*END

*D_NET *30 2.20061

*CONN
*P *403 I *C 14.145 99.480
*I *475:I I *C 16.990 93.965
*I *560:B1 I *C 22.779 86.717

*CAP
1 *403 0.532978
2 *475:I 0.58868
3 *560:B1 0.021759
4 *30:4 0.188361
5 *30:6 0.868828

*RES
1 *403 *30:4 4.38675
2 *475:I *30:3 0.001
3 *475:I *30:4 0.0692521
4 *475:I *30:6 7.22555
5 *560:B1 *30:5 0.001
6 *560:B1 *30:6 0.0692521
*END

*D_NET *31 1.05845

*CONN
*P *404 I *C 2.255 99.480
*I *473:I I *C 1.435 90.405
*I *559:B1 I *C 3.895 90.405

*CAP
1 *404 0.712087
2 *473:I 0.216292
3 *559:B1 0.0789896
4 *31:5 0.0510833

*RES
1 *404 *31:5 4.61213
2 *473:I *31:3 0.001
3 *473:I *31:5 0.550128
4 *559:B1 *31:4 0.001
5 *559:B1 *31:5 0.960128
*END

*D_NET *32 2.33614

*CONN
*P *405 I *C 0.050 97.375
*I *471:I I *C 5.125 83.025
*I *558:B1 I *C 3.895 79.335

*CAP
1 *405 0.329671
2 *471:I 0.0294479
3 *558:B1 0.0816419
4 *32:3 1.89538
5 *32:5 0.0

*RES
1 *405 *32:3 8.79838
2 *471:I *32:3 1.04425
3 *471:I *32:5 0.001
4 *558:B1 *32:3 3.1805
5 *558:B1 *32:4 0.001
*END

*D_NET *33 1.9527

*CONN
*P *406 I *C 0.050 85.485
*I *469:I I *C 1.410 79.335
*I *557:B1 I *C 3.895 71.955

*CAP
1 *406 0.187067
2 *469:I 0.0136062
3 *557:B1 0.71683
4 *33:3 1.0352
5 *33:4 0.0

*RES
1 *406 *33:3 4.28838
2 *469:I *33:3 0.466127
3 *557:B1 *33:3 5.24725
4 *557:B1 *33:4 0.001
*END

*D_NET *34 1.57733

*CONN
*P *407 I *C 0.050 73.595
*I *467:I I *C 1.428 72.040
*I *556:B1 I *C 3.895 64.342

*CAP
1 *467:I 0.172316
2 *556:B1 0.0216604
3 *34:4 1.04585
4 *34:5 0.3375

*RES
1 *407 *34:5 0.6925
2 *467:I *34:3 0.001
3 *467:I *34:5 1.00013
4 *556:B1 *34:4 0.136013
5 *34:4 *34:5 6.16138
*END

*D_NET *35 1.51219

*CONN
*P *408 I *C 0.100 61.655
*I *464:I I *C 1.435 64.575
*I *555:B1 I *C 3.895 57.195

*CAP
1 *408 0.217235
2 *464:I 0.0062239
3 *555:B1 0.442197
4 *35:5 0.846531

*RES
1 *408 *35:5 1.5
2 *464:I *35:3 0.001
3 *464:I *35:5 0.795128
4 *555:B1 *35:4 0.001
5 *555:B1 *35:5 4.93138
*END

*D_NET *36 0.957151

*CONN
*P *409 I *C 0.050 49.815
*I *538:I I *C 1.820 53.505
*I *563:B1 I *C 3.895 49.815

*CAP
1 *409 0.344597
2 *538:I 0.08664
3 *563:B1 0.0519404
4 *36:4 0.473974

*RES
1 *409 *36:4 1.3075
2 *538:I *36:4 2.422
3 *563:B1 *36:3 0.001
4 *563:B1 *36:4 0.755128
*END

*D_NET *43 0.508037

*CONN
*I *506:ZN O *D inv0d1 *C 31.775 19.310
*I *617:A I *C 34.635 20.200

*CAP
1 *617:A 0.137741
2 *43:2 0.370296
3 *43:3 0.0

*RES
1 *506:ZN *43:2 0.621875
2 *617:A *43:2 1.66526
3 *617:A *43:3 0.001
*END

*D_NET *44 1.64799

*CONN
*I *507:ZN O *D inv0d1 *C 39.565 19.475
*I *616:A I *C 50.880 20.705

*CAP
1 *44:3 1.3807
2 *44:4 0.267294

*RES
1 *507:ZN *44:2 0.001
2 *507:ZN *44:3 0.0692521
3 *616:A *44:4 0.0916812
4 *44:3 *44:4 6.43725
*END

*D_NET *45 1.32649

*CONN
*I *508:ZN O *D inv0d1 *C 52.685 39.565
*I *615:A I *C 48.585 30.955

*CAP
1 *508:ZN 0.391162
2 *615:A 0.0225207
3 *45:3 0.91281
4 *45:4 0.0

*RES
1 *508:ZN *45:3 6.7185
2 *508:ZN *45:4 0.001
3 *615:A *45:2 0.001
4 *615:A *45:3 0.0692521
*END

*D_NET *46 0.596374

*CONN
*I *509:ZN O *D inv0d1 *C 50.225 24.805
*I *614:A I *C 51.855 27.580

*CAP
1 *509:ZN 0.0580238
2 *614:A 0.141095
3 *46:2 0.397255
4 *46:3 0.0

*RES
1 *509:ZN *46:2 0.512883
2 *614:A *46:2 1.9505
3 *614:A *46:3 0.001
*END

*D_NET *47 0.68587

*CONN
*I *510:ZN O *D inv0d1 *C 69.495 48.995
*I *613:A I *C 69.250 42.845

*CAP
1 *613:A 0.0240893
2 *47:3 0.661781
3 *47:4 0.0

*RES
1 *510:ZN *47:3 3.21675
2 *510:ZN *47:4 0.001
3 *613:A *47:2 0.0916812
4 *47:2 *47:3 0.0692521
*END

*D_NET *48 1.24983

*CONN
*I *511:ZN O *D inv0d1 *C 55.555 39.565
*I *625:A I *C 63.745 42.340

*CAP
1 *625:A 0.245628
2 *48:2 1.0042
3 *48:3 0.0

*RES
1 *511:ZN *48:2 1.90313
2 *625:A *48:2 4.25151
3 *625:A *48:3 0.001
*END

*D_NET *49 1.1851

*CONN
*I *512:ZN O *D inv0d1 *C 70.725 48.995
*I *624:A I *C 77.120 45.715

*CAP
1 *49:3 0.738895
2 *49:4 0.446207

*RES
1 *512:ZN *49:2 0.001
2 *512:ZN *49:3 0.0692521
3 *624:A *49:4 0.0916812
4 *49:3 *49:4 4.99225
*END

*D_NET *50 1.32264

*CONN
*I *513:ZN O *D inv0d1 *C 90.405 39.565
*I *623:A I *C 84.265 42.340

*CAP
1 *623:A 0.851215
2 *50:4 0.47142

*RES
1 *513:ZN *50:3 0.001
2 *513:ZN *50:4 0.0692521
3 *623:A *50:2 0.001
4 *623:A *50:4 4.79725
*END

*D_NET *51 1.45168

*CONN
*I *514:ZN O *D inv0d1 *C 83.025 48.830
*I *622:A I *C 88.765 42.830

*CAP
1 *622:A 0.761983
2 *51:2 0.689693

*RES
1 *514:ZN *51:2 0.621875
2 *622:A *51:2 5.55901
*END

*D_NET *52 1.05077

*CONN
*I *515:ZN O *D inv0d1 *C 92.455 46.945
*I *621:A I *C 85.895 45.715

*CAP
1 *515:ZN 0.234976
2 *621:A 0.0224195
3 *52:3 0.793373
4 *52:4 0.0

*RES
1 *515:ZN *52:3 4.66975
2 *515:ZN *52:4 0.001
3 *621:A *52:2 0.001
4 *621:A *52:3 0.0692521
*END

*D_NET *53 1.55218

*CONN
*I *516:ZN O *D inv0d1 *C 84.985 59.705
*I *620:A I *C 80.155 53.095

*CAP
1 *516:ZN 0.575992
2 *620:A 0.0240565
3 *53:3 0.952129

*RES
1 *516:ZN *53:3 6.61276
2 *620:A *53:2 0.001
3 *620:A *53:3 0.0692521
*END

*D_NET *54 0.513313

*CONN
*I *517:ZN O *D inv0d1 *C 72.775 56.375
*I *619:A I *C 74.035 53.180

*CAP
1 *517:ZN 0.137758
2 *619:A 0.0134238
3 *54:3 0.0218815
4 *54:4 0.34025

*RES
1 *517:ZN *54:2 0.001
2 *517:ZN *54:4 2.33725
3 *619:A *54:3 0.105175
4 *54:3 *54:4 0.0692521
*END

*D_NET *55 0.650021

*CONN
*I *518:ZN O *D inv0d1 *C 70.315 63.755
*I *618:A I *C 68.675 60.475

*CAP
1 *518:ZN 0.188904
2 *618:A 0.0224271
3 *55:3 0.43869
4 *55:4 0.0

*RES
1 *518:ZN *55:3 2.74725
2 *518:ZN *55:4 0.001
3 *618:A *55:2 0.001
4 *618:A *55:3 0.0692521
*END

*D_NET *56 0.783379

*CONN
*I *519:ZN O *D inv0d1 *C 75.645 71.135
*I *612:A I *C 75.645 64.985

*CAP
1 *519:ZN 0.222521
2 *56:3 0.560857
3 *56:4 0.0

*RES
1 *519:ZN *56:3 3.75401
2 *519:ZN *56:4 0.001
3 *612:A *56:2 0.001
4 *612:A *56:3 0.0692521
*END

*D_NET *57 0.756817

*CONN
*I *520:A1 I *C 72.775 67.855
*I *626:ZN O *D inv0d0 *C 67.445 69.085

*CAP
1 *520:A1 0.14328
2 *57:3 0.613537
3 *57:4 0.0

*RES
1 *520:A1 *57:3 3.56725
2 *520:A1 *57:4 0.001
3 *626:ZN *57:2 0.001
4 *626:ZN *57:3 0.0692521
*END

*D_NET *58 0.938898

*CONN
*I *521:A1 I *C 78.105 67.855
*I *612:S O *D ah01d0 *C 72.775 65.395

*CAP
1 *521:A1 0.224881
2 *58:3 0.714017
3 *58:4 0.0

*RES
1 *521:A1 *58:3 4.2585
2 *521:A1 *58:4 0.001
3 *612:S *58:2 0.001
4 *612:S *58:3 0.0692521
*END

*D_NET *59 1.67719

*CONN
*I *522:A1 I *C 79.745 64.985
*I *618:S O *D ah01d0 *C 71.125 61.257

*CAP
1 *522:A1 0.442087
2 *618:S 0.0202337
3 *59:2 1.21487
4 *59:3 0.0

*RES
1 *522:A1 *59:2 6.92475
2 *522:A1 *59:3 0.001
3 *618:S *59:2 0.0692521
*END

*D_NET *60 1.05026

*CONN
*I *523:A1 I *C 80.975 57.605
*I *619:S O *D ah01d0 *C 77.275 53.877

*CAP
1 *523:A1 0.285111
2 *619:S 0.0224262
3 *60:2 0.742725
4 *60:3 0.0

*RES
1 *523:A1 *60:2 4.301
2 *523:A1 *60:3 0.001
3 *619:S *60:2 0.0692521
*END

*D_NET *61 0.624724

*CONN
*I *524:A1 I *C 86.715 53.095
*I *620:S O *D ah01d0 *C 82.615 52.685

*CAP
1 *524:A1 0.0591922
2 *61:3 0.565532
3 *61:4 0.0

*RES
1 *524:A1 *61:3 2.5435
2 *524:A1 *61:4 0.001
3 *620:S *61:2 0.001
4 *620:S *61:3 0.0692521
*END

*D_NET *62 2.17372

*CONN
*I *526:A1 I *C 94.505 38.335
*I *621:S O *D ah01d0 *C 88.345 46.498

*CAP
1 *526:A1 1.17233
2 *621:S 0.020484
3 *62:2 0.980905
4 *62:3 0.0

*RES
1 *526:A1 *62:2 8.99026
2 *526:A1 *62:3 0.001
3 *621:S *62:2 0.0692521
*END

*D_NET *63 0.476067

*CONN
*I *527:A1 I *C 86.305 38.335
*I *622:S O *D ah01d0 *C 86.830 41.640

*CAP
1 *622:S 0.424134
2 *63:3 0.0519335
3 *63:4 0.0

*RES
1 *527:A1 *63:2 0.001
2 *527:A1 *63:3 0.0692521
3 *622:S *63:3 1.80425
4 *622:S *63:4 0.001
*END

*D_NET *64 2.10349

*CONN
*I *528:A1 I *C 92.045 35.465
*I *623:S O *D ah01d0 *C 80.975 43.255

*CAP
1 *528:A1 1.02397
2 *64:3 1.07952
3 *64:4 0.0

*RES
1 *528:A1 *64:3 9.631
2 *528:A1 *64:4 0.001
3 *623:S *64:2 0.001
4 *623:S *64:3 0.0692521
*END

*D_NET *65 1.03509

*CONN
*I *529:A1 I *C 77.695 42.845
*I *624:S O *D ah01d0 *C 74.435 46.498

*CAP
1 *529:A1 0.0146855
2 *624:S 0.413226
3 *65:2 0.607174
4 *65:3 0.0

*RES
1 *529:A1 *65:2 0.224252
2 *529:A1 *65:3 0.001
3 *624:S *65:2 4.45851
*END

*D_NET *66 2.63478

*CONN
*I *530:A1 I *C 67.035 20.705
*I *625:S O *D ah01d0 *C 67.035 43.255

*CAP
1 *530:A1 0.331236
2 *625:S 0.0665102
3 *66:2 2.23703
4 *66:4 0.0

*RES
1 *530:A1 *66:2 1.30526
2 *530:A1 *66:3 0.001
3 *625:S *66:2 10.3955
4 *625:S *66:4 0.001
*END

*D_NET *67 1.46885

*CONN
*I *531:A1 I *C 76.875 35.465
*I *613:S O *D ah01d0 *C 71.955 43.255

*CAP
1 *613:S 0.612908
2 *67:4 0.855938

*RES
1 *531:A1 *67:3 0.001
2 *531:A1 *67:4 0.0692521
3 *613:S *67:2 0.001
4 *613:S *67:4 6.7185
*END

*D_NET *68 0.578593

*CONN
*I *532:A1 I *C 53.915 23.575
*I *614:S O *D ah01d0 *C 54.875 27.163

*CAP
1 *68:2 0.115388
2 *68:3 0.463205
3 *68:4 0.0

*RES
1 *532:A1 *68:3 0.925502
2 *532:A1 *68:4 0.001
3 *614:S *68:2 0.0884292
4 *68:2 *68:3 1.7455
*END

*D_NET *69 3.07379

*CONN
*I *533:A1 I *C 71.135 38.335
*I *615:S O *D ah01d0 *C 50.850 32.160

*CAP
1 *533:A1 0.66572
2 *615:S 0.0278324
3 *69:2 2.38024
4 *69:4 0.0

*RES
1 *533:A1 *69:2 13.266
2 *533:A1 *69:4 0.001
3 *615:S *69:2 0.0692521
4 *615:S *69:3 0.001
*END

*D_NET *70 1.18054

*CONN
*I *534:A1 I *C 53.095 16.195
*I *616:S O *D ah01d0 *C 48.175 21.115

*CAP
1 *534:A1 0.0411465
2 *616:S 0.561457
3 *70:2 0.577936
4 *70:4 0.0

*RES
1 *534:A1 *70:2 1.3355
2 *534:A1 *70:4 0.001
3 *616:S *70:2 4.01725
4 *616:S *70:3 0.001
*END

*D_NET *71 2.11876

*CONN
*I *535:A1 I *C 21.935 20.705
*I *617:S O *D ah01d0 *C 37.925 21.115

*CAP
1 *617:S 0.0698467
2 *71:3 2.04891
3 *71:4 0.0

*RES
1 *535:A1 *71:2 0.001
2 *535:A1 *71:3 0.0692521
3 *617:S *71:3 8.4885
4 *617:S *71:4 0.001
*END

*D_NET *72 2.57961

*CONN
*I *536:A1 I *C 65.395 31.775
*I *611:ZN O *D inv0d1 *C 47.765 24.970

*CAP
1 *536:A1 0.589003
2 *72:2 1.99061
3 *72:3 0.0

*RES
1 *536:A1 *72:2 12.0415
2 *536:A1 *72:3 0.001
3 *611:ZN *72:2 0.621875
*END

*D_NET *73 0.749364

*CONN
*I *572:Z O *D aor22d1 *C 3.485 27.265
*I *652:D I *C 4.305 34.645

*CAP
1 *652:D 0.12967
2 *73:3 0.619694
3 *73:4 0.0

*RES
1 *572:Z *73:2 0.001
2 *572:Z *73:3 0.0692521
3 *652:D *73:3 4.4635
4 *652:D *73:4 0.001
*END

*D_NET *74 9.94367

*CONN
*I *571:Z O *D an03d1 *C 22.320 28.452
*I *653:D I *C 64.985 90.815

*CAP
1 *571:Z 0.011719
2 *653:D 4.44309
3 *74:2 5.48886
4 *74:3 0.0

*RES
1 *571:Z *74:2 2.25988
2 *653:D *74:2 50.8898
3 *653:D *74:3 0.001
*END

*D_NET *75 0.361562

*CONN
*I *483:ZN O *D inv0d1 *C 36.695 91.225
*I *595:A2 I *C 35.875 94.505

*CAP
1 *483:ZN 0.00637136
2 *595:A2 0.0123853
3 *75:2 0.342805
4 *75:4 0.0

*RES
1 *483:ZN *75:2 0.224252
2 *483:ZN *75:4 0.001
3 *595:A2 *75:2 1.86425
4 *595:A2 *75:3 0.001
*END

*D_NET *76 1.04561

*CONN
*I *475:ZN O *D inv0d1 *C 16.605 93.275
*I *601:A I *C 16.605 82.615

*CAP
1 *601:A 0.0222017
2 *76:3 1.0234
3 *76:4 0.0

*RES
1 *475:ZN *76:3 5.47175
2 *475:ZN *76:4 0.001
3 *601:A *76:2 0.001
4 *601:A *76:3 0.0692521
*END

*D_NET *77 0.360888

*CONN
*I *473:ZN O *D inv0d1 *C 1.025 91.225
*I *600:A I *C 1.025 87.125

*CAP
1 *77:3 0.360888
2 *77:4 0.0

*RES
1 *473:ZN *77:3 2.19175
2 *473:ZN *77:4 0.001
3 *600:A *77:2 0.001
4 *600:A *77:3 0.0692521
*END

*D_NET *78 0.379882

*CONN
*I *471:ZN O *D inv0d1 *C 5.535 83.845
*I *599:A I *C 4.305 82.747

*CAP
1 *471:ZN 0.114473
2 *599:A 0.0310543
3 *78:3 0.234355
4 *78:4 0.0

*RES
1 *471:ZN *78:3 1.31225
2 *471:ZN *78:4 0.001
3 *599:A *78:2 0.0865697
4 *78:2 *78:3 0.0692521
*END

*D_NET *79 0.27981

*CONN
*I *469:ZN O *D inv0d1 *C 1.025 78.515
*I *598:A I *C 1.025 75.235

*CAP
1 *79:3 0.27981
2 *79:4 0.0

*RES
1 *469:ZN *79:3 1.78175
2 *469:ZN *79:4 0.001
3 *598:A *79:2 0.001
4 *598:A *79:3 0.0692521
*END

*D_NET *80 0.665127

*CONN
*I *467:ZN O *D inv0d1 *C 1.025 71.135
*I *597:A I *C 4.140 67.855

*CAP
1 *80:3 0.291934
2 *80:4 0.373194

*RES
1 *467:ZN *80:2 0.001
2 *467:ZN *80:3 0.0692521
3 *597:A *80:4 0.0916812
4 *80:3 *80:4 3.35225
*END

*D_NET *81 0.366952

*CONN
*I *464:ZN O *D inv0d1 *C 1.025 63.755
*I *596:A I *C 1.025 60.475

*CAP
1 *81:3 0.366952
2 *81:4 0.0

*RES
1 *464:ZN *81:3 1.78175
2 *464:ZN *81:4 0.001
3 *596:A *81:2 0.001
4 *596:A *81:3 0.0692521
*END

*D_NET *82 1.05832

*CONN
*I *538:ZN O *D inv0d0 *C 1.435 54.325
*I *596:B I *C 2.255 60.885
*I *602:I I *C 1.845 49.815

*CAP
1 *596:B 0.0379994
2 *602:I 0.366594
3 *82:3 0.653725
4 *82:6 0.0

*RES
1 *538:ZN *82:3 0.224252
2 *538:ZN *82:4 0.001
3 *596:B *82:3 3.5905
4 *596:B *82:6 0.001
5 *602:I *82:3 2.3605
6 *602:I *82:5 0.001
*END

*D_NET *83 0.59179

*CONN
*I *563:A1 I *C 5.945 50.225
*I *602:ZN O *D inv0d0 *C 2.255 48.995

*CAP
1 *563:A1 0.166094
2 *83:3 0.425696
3 *83:4 0.0

*RES
1 *563:A1 *83:3 2.74725
2 *563:A1 *83:4 0.001
3 *602:ZN *83:2 0.001
4 *602:ZN *83:3 0.0692521
*END

*D_NET *84 0.971099

*CONN
*I *555:A1 I *C 5.945 57.605
*I *596:S O *D ah01d0 *C 3.895 60.065

*CAP
1 *555:A1 0.547311
2 *84:3 0.423788
3 *84:4 0.0

*RES
1 *555:A1 *84:3 4.17225
2 *555:A1 *84:4 0.001
3 *596:S *84:2 0.001
4 *596:S *84:3 0.0692521
*END

*D_NET *85 0.673908

*CONN
*I *556:A1 I *C 5.945 64.985
*I *597:S O *D ah01d0 *C 1.435 67.445

*CAP
1 *556:A1 0.256248
2 *85:3 0.41766
3 *85:4 0.0

*RES
1 *556:A1 *85:3 3.77225
2 *556:A1 *85:4 0.001
3 *597:S *85:2 0.001
4 *597:S *85:3 0.0692521
*END

*D_NET *86 0.594142

*CONN
*I *557:A1 I *C 5.945 72.365
*I *598:S O *D ah01d0 *C 3.895 74.825

*CAP
1 *557:A1 0.00658168
2 *598:S 0.209036
3 *86:2 0.378524
4 *86:4 0.0

*RES
1 *557:A1 *86:2 0.224252
2 *557:A1 *86:4 0.001