*SPEF "IEEE 1481-1999"
*DESIGN "RISC8_routed"
*DATE "Wed Jun  1 18:51:32 2022"
*VENDOR "Synopsys Inc."
*PROGRAM "StarRC"
*VERSION "O-2018.06-SP4"
*DESIGN_FLOW "PIN_CAP NONE" "NAME_SCOPE LOCAL"
*DIVIDER /
*DELIMITER :
*BUS_DELIMITER []
*T_UNIT 1.0 NS
*C_UNIT 1.0 FF
*R_UNIT 1.0 OHM
*L_UNIT 1.0 HENRY

// COMMENTS

// OPERATING_TEMPERATURE 25
// GLOBAL_TEMPERATURE 25
// TCAD_GRD_FILE ../saed32nm_1p9m_nominal.nxtgrd
//   TCAD_TIME_STAMP Wed Mar 16 14:34:54 2011
//   TCADGRD_VERSION 72
// galaxy_comments_begin
//   local_nodeid
// galaxy_comments_end

*NAME_MAP
*2554 ie
*2555 iack
*2556 ifetch
*2557 write
*2558 cycle
*2559 scan_mode
*2560 scan_en
*2561 scan_in
*2562 ready
*2563 int
*2564 nmi
*2565 rst_n
*2566 clk
*2567 data_in[7]
*2568 data_in[6]
*2569 data_in[5]
*2570 data_in[4]
*2571 data_in[3]
*2572 data_in[2]
*2573 data_in[1]
*2574 data_in[0]
*2575 data_out[7]
*2576 data_out[6]
*2577 data_out[5]
*2578 data_out[4]
*2579 data_out[3]
*2580 data_out[2]
*2581 data_out[1]
*2582 data_out[0]
*2583 address[15]
*2584 address[14]
*2585 address[13]
*2586 address[12]
*2587 address[11]
*2588 address[10]
*2589 address[9]
*2590 address[8]
*2591 address[7]
*2592 address[6]
*2593 address[5]
*2594 address[4]
*2595 address[3]
*2596 address[2]
*2597 address[1]
*2598 address[0]
*2599 U1
*2600 U10
*2601 U11
*2602 U12
*2603 U13
*2604 U14
*2605 U15
*2606 U16
*2607 U17
*2608 U18
*2609 U19
*2610 U2
*2611 U20
*2612 U21
*2613 U22
*2614 U23
*2615 U24
*2616 U25
*2617 U26
*2618 U27
*2619 U28
*2620 U29
*2621 U3
*2622 U30
*2623 U31
*2624 U32
*2625 U33
*2626 U34
*2627 U35
*2628 U36
*2629 U37
*2630 U4
*2631 U5
*2632 U6
*2633 U7
*2634 U8
*2635 U9
*2636 U_alu/U0/U1
*2637 U_alu/U0/U10
*2638 U_alu/U0/U11
*2639 U_alu/U0/U12
*2640 U_alu/U0/U13
*2641 U_alu/U0/U15
*2642 U_alu/U0/U16
*2643 U_alu/U0/U17
*2644 U_alu/U0/U2
*2645 U_alu/U0/U23
*2646 U_alu/U0/U24
*2647 U_alu/U0/U25
*2648 U_alu/U0/U26
*2649 U_alu/U0/U27
*2650 U_alu/U0/U28
*2651 U_alu/U0/U29
*2652 U_alu/U0/U3
*2653 U_alu/U0/U30
*2654 U_alu/U0/U4
*2655 U_alu/U0/U5
*2656 U_alu/U0/U6
*2657 U_alu/U0/U7
*2658 U_alu/U0/U8
*2659 U_alu/U0/U9
*2660 U_alu/U1
*2661 U_alu/U10
*2662 U_alu/U100
*2663 U_alu/U101
*2664 U_alu/U102
*2665 U_alu/U103
*2666 U_alu/U106
*2667 U_alu/U107
*2668 U_alu/U108
*2669 U_alu/U109
*2670 U_alu/U11
*2671 U_alu/U110
*2672 U_alu/U111
*2673 U_alu/U112
*2674 U_alu/U113
*2675 U_alu/U114
*2676 U_alu/U115
*2677 U_alu/U116
*2678 U_alu/U117
*2679 U_alu/U118
*2680 U_alu/U119
*2681 U_alu/U12
*2682 U_alu/U120
*2683 U_alu/U121
*2684 U_alu/U122
*2685 U_alu/U123
*2686 U_alu/U124
*2687 U_alu/U125
*2688 U_alu/U126
*2689 U_alu/U127
*2690 U_alu/U128
*2691 U_alu/U129
*2692 U_alu/U13
*2693 U_alu/U130
*2694 U_alu/U131
*2695 U_alu/U132
*2696 U_alu/U133
*2697 U_alu/U134
*2698 U_alu/U135
*2699 U_alu/U136
*2700 U_alu/U137
*2701 U_alu/U138
*2702 U_alu/U139
*2703 U_alu/U14
*2704 U_alu/U140
*2705 U_alu/U141
*2706 U_alu/U142
*2707 U_alu/U143
*2708 U_alu/U144
*2709 U_alu/U145
*2710 U_alu/U146
*2711 U_alu/U147
*2712 U_alu/U148
*2713 U_alu/U149
*2714 U_alu/U15
*2715 U_alu/U150
*2716 U_alu/U151
*2717 U_alu/U152
*2718 U_alu/U153
*2719 U_alu/U154
*2720 U_alu/U155
*2721 U_alu/U156
*2722 U_alu/U157
*2723 U_alu/U158
*2724 U_alu/U159
*2725 U_alu/U16
*2726 U_alu/U160
*2727 U_alu/U161
*2728 U_alu/U162
*2729 U_alu/U163
*2730 U_alu/U164
*2731 U_alu/U165
*2732 U_alu/U166
*2733 U_alu/U167
*2734 U_alu/U168
*2735 U_alu/U169
*2736 U_alu/U17
*2737 U_alu/U170
*2738 U_alu/U171
*2739 U_alu/U172
*2740 U_alu/U173
*2741 U_alu/U174
*2742 U_alu/U175
*2743 U_alu/U176
*2744 U_alu/U177
*2745 U_alu/U178
*2746 U_alu/U179
*2747 U_alu/U18
*2748 U_alu/U180
*2749 U_alu/U182
*2750 U_alu/U183
*2751 U_alu/U184
*2752 U_alu/U185
*2753 U_alu/U186
*2754 U_alu/U187
*2755 U_alu/U188
*2756 U_alu/U189
*2757 U_alu/U19
*2758 U_alu/U190
*2759 U_alu/U191
*2760 U_alu/U192
*2761 U_alu/U193
*2762 U_alu/U194
*2763 U_alu/U195
*2764 U_alu/U196
*2765 U_alu/U197
*2766 U_alu/U198
*2767 U_alu/U199
*2768 U_alu/U2
*2769 U_alu/U20
*2770 U_alu/U200
*2771 U_alu/U201
*2772 U_alu/U202
*2773 U_alu/U203
*2774 U_alu/U204
*2775 U_alu/U205
*2776 U_alu/U206
*2777 U_alu/U207
*2778 U_alu/U208
*2779 U_alu/U209
*2780 U_alu/U21
*2781 U_alu/U210
*2782 U_alu/U211
*2783 U_alu/U212
*2784 U_alu/U213
*2785 U_alu/U214
*2786 U_alu/U215
*2787 U_alu/U216
*2788 U_alu/U217
*2789 U_alu/U218
*2790 U_alu/U219
*2791 U_alu/U22
*2792 U_alu/U220
*2793 U_alu/U221
*2794 U_alu/U222
*2795 U_alu/U223
*2796 U_alu/U224
*2797 U_alu/U225
*2798 U_alu/U226
*2799 U_alu/U227
*2800 U_alu/U228
*2801 U_alu/U229
*2802 U_alu/U23
*2803 U_alu/U230
*2804 U_alu/U231
*2805 U_alu/U232
*2806 U_alu/U24
*2807 U_alu/U25
*2808 U_alu/U26
*2809 U_alu/U27
*2810 U_alu/U28
*2811 U_alu/U29
*2812 U_alu/U3
*2813 U_alu/U30
*2814 U_alu/U31
*2815 U_alu/U32
*2816 U_alu/U33
*2817 U_alu/U34
*2818 U_alu/U35
*2819 U_alu/U36
*2820 U_alu/U37
*2821 U_alu/U38
*2822 U_alu/U39
*2823 U_alu/U4
*2824 U_alu/U40
*2825 U_alu/U41
*2826 U_alu/U42
*2827 U_alu/U43
*2828 U_alu/U44
*2829 U_alu/U45
*2830 U_alu/U46
*2831 U_alu/U47
*2832 U_alu/U48
*2833 U_alu/U49
*2834 U_alu/U5
*2835 U_alu/U50
*2836 U_alu/U51
*2837 U_alu/U52
*2838 U_alu/U53
*2839 U_alu/U54
*2840 U_alu/U55
*2841 U_alu/U56
*2842 U_alu/U57
*2843 U_alu/U58
*2844 U_alu/U59
*2845 U_alu/U6
*2846 U_alu/U60
*2847 U_alu/U61
*2848 U_alu/U62
*2849 U_alu/U64
*2850 U_alu/U65
*2851 U_alu/U66
*2852 U_alu/U67
*2853 U_alu/U68
*2854 U_alu/U69
*2855 U_alu/U7
*2856 U_alu/U70
*2857 U_alu/U71
*2858 U_alu/U72
*2859 U_alu/U73
*2860 U_alu/U74
*2861 U_alu/U75
*2862 U_alu/U76
*2863 U_alu/U77
*2864 U_alu/U78
*2865 U_alu/U79
*2866 U_alu/U8
*2867 U_alu/U80
*2868 U_alu/U81
*2869 U_alu/U82
*2870 U_alu/U83
*2871 U_alu/U84
*2872 U_alu/U85
*2873 U_alu/U86
*2874 U_alu/U87
*2875 U_alu/U88
*2876 U_alu/U89
*2877 U_alu/U9
*2878 U_alu/U90
*2879 U_alu/U91
*2880 U_alu/U92
*2881 U_alu/U93
*2882 U_alu/U94
*2883 U_alu/U95
*2884 U_alu/U96
*2885 U_alu/U97
*2886 U_alu/U98
*2887 U_alu/U99
*2888 U_alu/a_reg_reg_0_
*2889 U_alu/a_reg_reg_1_
*2890 U_alu/a_reg_reg_2_
*2891 U_alu/a_reg_reg_3_
*2892 U_alu/a_reg_reg_4_
*2893 U_alu/a_reg_reg_5_
*2894 U_alu/a_reg_reg_6_
*2895 U_alu/a_reg_reg_7_
*2896 U_alu/p_reg_reg_0_
*2897 U_alu/p_reg_reg_1_
*2898 U_alu/p_reg_reg_2_
*2899 U_alu/p_reg_reg_3_
*2900 U_alu/p_reg_reg_4_
*2901 U_alu/p_reg_reg_5_
*2902 U_alu/p_reg_reg_6_
*2903 U_alu/p_reg_reg_7_
*2904 U_alu/p_reg_reg_8_
*2905 U_alu/save_a7_reg
*2906 U_alu/save_carry_reg
*2907 U_control/U1
*2908 U_control/U10
*2909 U_control/U100
*2910 U_control/U101
*2911 U_control/U102
*2912 U_control/U103
*2913 U_control/U104
*2914 U_control/U105
*2915 U_control/U106
*2916 U_control/U107
*2917 U_control/U108
*2918 U_control/U109
*2919 U_control/U11
*2920 U_control/U110
*2921 U_control/U111
*2922 U_control/U112
*2923 U_control/U113
*2924 U_control/U114
*2925 U_control/U115
*2926 U_control/U116
*2927 U_control/U117
*2928 U_control/U118
*2929 U_control/U119
*2930 U_control/U12
*2931 U_control/U120
*2932 U_control/U121
*2933 U_control/U122
*2934 U_control/U123
*2935 U_control/U124
*2936 U_control/U125
*2937 U_control/U126
*2938 U_control/U127
*2939 U_control/U128
*2940 U_control/U129
*2941 U_control/U13
*2942 U_control/U130
*2943 U_control/U131
*2944 U_control/U132
*2945 U_control/U133
*2946 U_control/U134
*2947 U_control/U135
*2948 U_control/U136
*2949 U_control/U137
*2950 U_control/U138
*2951 U_control/U139
*2952 U_control/U14
*2953 U_control/U140
*2954 U_control/U141
*2955 U_control/U142
*2956 U_control/U143
*2957 U_control/U144
*2958 U_control/U145
*2959 U_control/U146
*2960 U_control/U147
*2961 U_control/U148
*2962 U_control/U149
*2963 U_control/U15
*2964 U_control/U150
*2965 U_control/U151
*2966 U_control/U152
*2967 U_control/U153
*2968 U_control/U154
*2969 U_control/U155
*2970 U_control/U156
*2971 U_control/U157
*2972 U_control/U158
*2973 U_control/U159
*2974 U_control/U16
*2975 U_control/U160
*2976 U_control/U161
*2977 U_control/U162
*2978 U_control/U163
*2979 U_control/U164
*2980 U_control/U165
*2981 U_control/U166
*2982 U_control/U167
*2983 U_control/U168
*2984 U_control/U169
*2985 U_control/U17
*2986 U_control/U170
*2987 U_control/U171
*2988 U_control/U172
*2989 U_control/U173
*2990 U_control/U174
*2991 U_control/U175
*2992 U_control/U176
*2993 U_control/U177
*2994 U_control/U178
*2995 U_control/U179
*2996 U_control/U18
*2997 U_control/U180
*2998 U_control/U181
*2999 U_control/U182
*3000 U_control/U183
*3001 U_control/U184
*3002 U_control/U185
*3003 U_control/U186
*3004 U_control/U187
*3005 U_control/U188
*3006 U_control/U189
*3007 U_control/U19
*3008 U_control/U190
*3009 U_control/U191
*3010 U_control/U192
*3011 U_control/U193
*3012 U_control/U194
*3013 U_control/U195
*3014 U_control/U196
*3015 U_control/U197
*3016 U_control/U198
*3017 U_control/U199
*3018 U_control/U2
*3019 U_control/U20
*3020 U_control/U200
*3021 U_control/U201
*3022 U_control/U202
*3023 U_control/U203
*3024 U_control/U204
*3025 U_control/U205
*3026 U_control/U206
*3027 U_control/U207
*3028 U_control/U208
*3029 U_control/U209
*3030 U_control/U21
*3031 U_control/U210
*3032 U_control/U211
*3033 U_control/U212
*3034 U_control/U213
*3035 U_control/U214
*3036 U_control/U215
*3037 U_control/U216
*3038 U_control/U217
*3039 U_control/U218
*3040 U_control/U219
*3041 U_control/U22
*3042 U_control/U220
*3043 U_control/U221
*3044 U_control/U222
*3045 U_control/U223
*3046 U_control/U224
*3047 U_control/U225
*3048 U_control/U226
*3049 U_control/U227
*3050 U_control/U228
*3051 U_control/U229
*3052 U_control/U23
*3053 U_control/U230
*3054 U_control/U231
*3055 U_control/U232
*3056 U_control/U233
*3057 U_control/U234
*3058 U_control/U235
*3059 U_control/U236
*3060 U_control/U237
*3061 U_control/U238
*3062 U_control/U239
*3063 U_control/U24
*3064 U_control/U240
*3065 U_control/U241
*3066 U_control/U242
*3067 U_control/U243
*3068 U_control/U244
*3069 U_control/U245
*3070 U_control/U247
*3071 U_control/U248
*3072 U_control/U25
*3073 U_control/U250
*3074 U_control/U252
*3075 U_control/U253
*3076 U_control/U254
*3077 U_control/U256
*3078 U_control/U257
*3079 U_control/U259
*3080 U_control/U26
*3081 U_control/U260
*3082 U_control/U261
*3083 U_control/U262
*3084 U_control/U263
*3085 U_control/U264
*3086 U_control/U266
*3087 U_control/U267
*3088 U_control/U268
*3089 U_control/U269
*3090 U_control/U27
*3091 U_control/U270
*3092 U_control/U271
*3093 U_control/U273
*3094 U_control/U274
*3095 U_control/U276
*3096 U_control/U277
*3097 U_control/U278
*3098 U_control/U279
*3099 U_control/U28
*3100 U_control/U280
*3101 U_control/U281
*3102 U_control/U282
*3103 U_control/U283
*3104 U_control/U284
*3105 U_control/U285
*3106 U_control/U286
*3107 U_control/U287
*3108 U_control/U289
*3109 U_control/U29
*3110 U_control/U290
*3111 U_control/U291
*3112 U_control/U292
*3113 U_control/U293
*3114 U_control/U295
*3115 U_control/U296
*3116 U_control/U297
*3117 U_control/U298
*3118 U_control/U299
*3119 U_control/U3
*3120 U_control/U30
*3121 U_control/U300
*3122 U_control/U301
*3123 U_control/U302
*3124 U_control/U303
*3125 U_control/U304
*3126 U_control/U305
*3127 U_control/U306
*3128 U_control/U307
*3129 U_control/U31
*3130 U_control/U315
*3131 U_control/U316
*3132 U_control/U317
*3133 U_control/U318
*3134 U_control/U319
*3135 U_control/U32
*3136 U_control/U321
*3137 U_control/U322
*3138 U_control/U323
*3139 U_control/U324
*3140 U_control/U325
*3141 U_control/U326
*3142 U_control/U328
*3143 U_control/U329
*3144 U_control/U33
*3145 U_control/U330
*3146 U_control/U331
*3147 U_control/U333
*3148 U_control/U334
*3149 U_control/U335
*3150 U_control/U336
*3151 U_control/U337
*3152 U_control/U338
*3153 U_control/U339
*3154 U_control/U34
*3155 U_control/U340
*3156 U_control/U341
*3157 U_control/U342
*3158 U_control/U343
*3159 U_control/U344
*3160 U_control/U345
*3161 U_control/U346
*3162 U_control/U347
*3163 U_control/U348
*3164 U_control/U349
*3165 U_control/U35
*3166 U_control/U350
*3167 U_control/U351
*3168 U_control/U352
*3169 U_control/U353
*3170 U_control/U354
*3171 U_control/U355
*3172 U_control/U356
*3173 U_control/U357
*3174 U_control/U358
*3175 U_control/U359
*3176 U_control/U36
*3177 U_control/U360
*3178 U_control/U361
*3179 U_control/U362
*3180 U_control/U363
*3181 U_control/U364
*3182 U_control/U365
*3183 U_control/U366
*3184 U_control/U367
*3185 U_control/U368
*3186 U_control/U369
*3187 U_control/U37
*3188 U_control/U370
*3189 U_control/U371
*3190 U_control/U372
*3191 U_control/U373
*3192 U_control/U374
*3193 U_control/U375
*3194 U_control/U376
*3195 U_control/U377
*3196 U_control/U378
*3197 U_control/U379
*3198 U_control/U38
*3199 U_control/U380
*3200 U_control/U381
*3201 U_control/U382
*3202 U_control/U383
*3203 U_control/U384
*3204 U_control/U385
*3205 U_control/U386
*3206 U_control/U387
*3207 U_control/U388
*3208 U_control/U389
*3209 U_control/U39
*3210 U_control/U390
*3211 U_control/U391
*3212 U_control/U392
*3213 U_control/U393
*3214 U_control/U394
*3215 U_control/U395
*3216 U_control/U396
*3217 U_control/U397
*3218 U_control/U398
*3219 U_control/U399
*3220 U_control/U4
*3221 U_control/U40
*3222 U_control/U400
*3223 U_control/U401
*3224 U_control/U402
*3225 U_control/U403
*3226 U_control/U404
*3227 U_control/U405
*3228 U_control/U406
*3229 U_control/U407
*3230 U_control/U408
*3231 U_control/U409
*3232 U_control/U41
*3233 U_control/U410
*3234 U_control/U411
*3235 U_control/U412
*3236 U_control/U413
*3237 U_control/U414
*3238 U_control/U415
*3239 U_control/U416
*3240 U_control/U417
*3241 U_control/U418
*3242 U_control/U419
*3243 U_control/U42
*3244 U_control/U420
*3245 U_control/U421
*3246 U_control/U422
*3247 U_control/U423
*3248 U_control/U424
*3249 U_control/U425
*3250 U_control/U426
*3251 U_control/U427
*3252 U_control/U428
*3253 U_control/U429
*3254 U_control/U43
*3255 U_control/U430
*3256 U_control/U431
*3257 U_control/U432
*3258 U_control/U433
*3259 U_control/U434
*3260 U_control/U435
*3261 U_control/U436
*3262 U_control/U437
*3263 U_control/U438
*3264 U_control/U439
*3265 U_control/U44
*3266 U_control/U440
*3267 U_control/U441
*3268 U_control/U442
*3269 U_control/U443
*3270 U_control/U444
*3271 U_control/U445
*3272 U_control/U446
*3273 U_control/U447
*3274 U_control/U448
*3275 U_control/U449
*3276 U_control/U45
*3277 U_control/U450
*3278 U_control/U451
*3279 U_control/U452
*3280 U_control/U453
*3281 U_control/U454
*3282 U_control/U455
*3283 U_control/U456
*3284 U_control/U457
*3285 U_control/U458
*3286 U_control/U459
*3287 U_control/U46
*3288 U_control/U460
*3289 U_control/U461
*3290 U_control/U462
*3291 U_control/U463
*3292 U_control/U464
*3293 U_control/U465
*3294 U_control/U466
*3295 U_control/U467
*3296 U_control/U468
*3297 U_control/U469
*3298 U_control/U47
*3299 U_control/U470
*3300 U_control/U471
*3301 U_control/U472
*3302 U_control/U473
*3303 U_control/U474
*3304 U_control/U475
*3305 U_control/U476
*3306 U_control/U477
*3307 U_control/U478
*3308 U_control/U479
*3309 U_control/U48
*3310 U_control/U480
*3311 U_control/U481
*3312 U_control/U482
*3313 U_control/U483
*3314 U_control/U484
*3315 U_control/U485
*3316 U_control/U486
*3317 U_control/U487
*3318 U_control/U488
*3319 U_control/U489
*3320 U_control/U49
*3321 U_control/U490
*3322 U_control/U491
*3323 U_control/U492
*3324 U_control/U493
*3325 U_control/U494
*3326 U_control/U495
*3327 U_control/U496
*3328 U_control/U497
*3329 U_control/U498
*3330 U_control/U499
*3331 U_control/U5
*3332 U_control/U50
*3333 U_control/U500
*3334 U_control/U501
*3335 U_control/U502
*3336 U_control/U503
*3337 U_control/U504
*3338 U_control/U505
*3339 U_control/U506
*3340 U_control/U507
*3341 U_control/U508
*3342 U_control/U509
*3343 U_control/U51
*3344 U_control/U510
*3345 U_control/U511
*3346 U_control/U512
*3347 U_control/U513
*3348 U_control/U514
*3349 U_control/U515
*3350 U_control/U516
*3351 U_control/U517
*3352 U_control/U518
*3353 U_control/U519
*3354 U_control/U52
*3355 U_control/U520
*3356 U_control/U521
*3357 U_control/U522
*3358 U_control/U523
*3359 U_control/U524
*3360 U_control/U525
*3361 U_control/U526
*3362 U_control/U527
*3363 U_control/U528
*3364 U_control/U529
*3365 U_control/U53
*3366 U_control/U530
*3367 U_control/U531
*3368 U_control/U532
*3369 U_control/U533
*3370 U_control/U534
*3371 U_control/U535
*3372 U_control/U536
*3373 U_control/U537
*3374 U_control/U538
*3375 U_control/U539
*3376 U_control/U54
*3377 U_control/U540
*3378 U_control/U541
*3379 U_control/U542
*3380 U_control/U543
*3381 U_control/U544
*3382 U_control/U545
*3383 U_control/U546
*3384 U_control/U547
*3385 U_control/U548
*3386 U_control/U549
*3387 U_control/U55
*3388 U_control/U550
*3389 U_control/U551
*3390 U_control/U552
*3391 U_control/U553
*3392 U_control/U554
*3393 U_control/U555
*3394 U_control/U556
*3395 U_control/U557
*3396 U_control/U558
*3397 U_control/U559
*3398 U_control/U56
*3399 U_control/U560
*3400 U_control/U561
*3401 U_control/U562
*3402 U_control/U563
*3403 U_control/U564
*3404 U_control/U565
*3405 U_control/U566
*3406 U_control/U567
*3407 U_control/U568
*3408 U_control/U569
*3409 U_control/U57
*3410 U_control/U570
*3411 U_control/U571
*3412 U_control/U572
*3413 U_control/U573
*3414 U_control/U574
*3415 U_control/U575
*3416 U_control/U576
*3417 U_control/U577
*3418 U_control/U578
*3419 U_control/U579
*3420 U_control/U58
*3421 U_control/U580
*3422 U_control/U581
*3423 U_control/U582
*3424 U_control/U583
*3425 U_control/U584
*3426 U_control/U585
*3427 U_control/U586
*3428 U_control/U587
*3429 U_control/U588
*3430 U_control/U589
*3431 U_control/U59
*3432 U_control/U590
*3433 U_control/U591
*3434 U_control/U592
*3435 U_control/U593
*3436 U_control/U594
*3437 U_control/U595
*3438 U_control/U596
*3439 U_control/U597
*3440 U_control/U598
*3441 U_control/U599
*3442 U_control/U6
*3443 U_control/U60
*3444 U_control/U600
*3445 U_control/U601
*3446 U_control/U602
*3447 U_control/U603
*3448 U_control/U604
*3449 U_control/U605
*3450 U_control/U606
*3451 U_control/U607
*3452 U_control/U608
*3453 U_control/U609
*3454 U_control/U61
*3455 U_control/U610
*3456 U_control/U611
*3457 U_control/U612
*3458 U_control/U613
*3459 U_control/U614
*3460 U_control/U615
*3461 U_control/U616
*3462 U_control/U617
*3463 U_control/U618
*3464 U_control/U619
*3465 U_control/U62
*3466 U_control/U620
*3467 U_control/U621
*3468 U_control/U622
*3469 U_control/U623
*3470 U_control/U624
*3471 U_control/U625
*3472 U_control/U626
*3473 U_control/U627
*3474 U_control/U628
*3475 U_control/U629
*3476 U_control/U63
*3477 U_control/U630
*3478 U_control/U631
*3479 U_control/U632
*3480 U_control/U633
*3481 U_control/U634
*3482 U_control/U635
*3483 U_control/U636
*3484 U_control/U637
*3485 U_control/U638
*3486 U_control/U639
*3487 U_control/U64
*3488 U_control/U640
*3489 U_control/U641
*3490 U_control/U642
*3491 U_control/U643
*3492 U_control/U644
*3493 U_control/U645
*3494 U_control/U646
*3495 U_control/U647
*3496 U_control/U648
*3497 U_control/U649
*3498 U_control/U65
*3499 U_control/U650
*3500 U_control/U651
*3501 U_control/U652
*3502 U_control/U653
*3503 U_control/U654
*3504 U_control/U655
*3505 U_control/U656
*3506 U_control/U657
*3507 U_control/U658
*3508 U_control/U659
*3509 U_control/U66
*3510 U_control/U660
*3511 U_control/U661
*3512 U_control/U662
*3513 U_control/U663
*3514 U_control/U664
*3515 U_control/U665
*3516 U_control/U666
*3517 U_control/U667
*3518 U_control/U668
*3519 U_control/U669
*3520 U_control/U67
*3521 U_control/U670
*3522 U_control/U671
*3523 U_control/U672
*3524 U_control/U673
*3525 U_control/U674
*3526 U_control/U675
*3527 U_control/U676
*3528 U_control/U677
*3529 U_control/U678
*3530 U_control/U679
*3531 U_control/U68
*3532 U_control/U680
*3533 U_control/U681
*3534 U_control/U682
*3535 U_control/U683
*3536 U_control/U684
*3537 U_control/U686
*3538 U_control/U687
*3539 U_control/U688
*3540 U_control/U689
*3541 U_control/U69
*3542 U_control/U690
*3543 U_control/U691
*3544 U_control/U692
*3545 U_control/U693
*3546 U_control/U694
*3547 U_control/U695
*3548 U_control/U696
*3549 U_control/U697
*3550 U_control/U698
*3551 U_control/U699
*3552 U_control/U7
*3553 U_control/U70
*3554 U_control/U700
*3555 U_control/U701
*3556 U_control/U702
*3557 U_control/U703
*3558 U_control/U704
*3559 U_control/U705
*3560 U_control/U706
*3561 U_control/U707
*3562 U_control/U708
*3563 U_control/U709
*3564 U_control/U71
*3565 U_control/U710
*3566 U_control/U711
*3567 U_control/U712
*3568 U_control/U713
*3569 U_control/U714
*3570 U_control/U716
*3571 U_control/U717
*3572 U_control/U718
*3573 U_control/U72
*3574 U_control/U722
*3575 U_control/U723
*3576 U_control/U727
*3577 U_control/U728
*3578 U_control/U729
*3579 U_control/U73
*3580 U_control/U730
*3581 U_control/U731
*3582 U_control/U732
*3583 U_control/U733
*3584 U_control/U734
*3585 U_control/U735
*3586 U_control/U736
*3587 U_control/U737
*3588 U_control/U738
*3589 U_control/U739
*3590 U_control/U74
*3591 U_control/U740
*3592 U_control/U741
*3593 U_control/U742
*3594 U_control/U743
*3595 U_control/U744
*3596 U_control/U745
*3597 U_control/U746
*3598 U_control/U747
*3599 U_control/U748
*3600 U_control/U749
*3601 U_control/U75
*3602 U_control/U750
*3603 U_control/U751
*3604 U_control/U752
*3605 U_control/U753
*3606 U_control/U754
*3607 U_control/U755
*3608 U_control/U756
*3609 U_control/U757
*3610 U_control/U758
*3611 U_control/U759
*3612 U_control/U76
*3613 U_control/U760
*3614 U_control/U761
*3615 U_control/U762
*3616 U_control/U763
*3617 U_control/U764
*3618 U_control/U765
*3619 U_control/U766
*3620 U_control/U767
*3621 U_control/U768
*3622 U_control/U769
*3623 U_control/U77
*3624 U_control/U770
*3625 U_control/U771
*3626 U_control/U772
*3627 U_control/U773
*3628 U_control/U774
*3629 U_control/U775
*3630 U_control/U776
*3631 U_control/U777
*3632 U_control/U778
*3633 U_control/U779
*3634 U_control/U78
*3635 U_control/U780
*3636 U_control/U781
*3637 U_control/U782
*3638 U_control/U783
*3639 U_control/U784
*3640 U_control/U785
*3641 U_control/U786
*3642 U_control/U787
*3643 U_control/U788
*3644 U_control/U789
*3645 U_control/U79
*3646 U_control/U790
*3647 U_control/U791
*3648 U_control/U792
*3649 U_control/U793
*3650 U_control/U794
*3651 U_control/U795
*3652 U_control/U796
*3653 U_control/U797
*3654 U_control/U798
*3655 U_control/U799
*3656 U_control/U8
*3657 U_control/U80
*3658 U_control/U800
*3659 U_control/U801
*3660 U_control/U802
*3661 U_control/U803
*3662 U_control/U804
*3663 U_control/U805
*3664 U_control/U806
*3665 U_control/U807
*3666 U_control/U808
*3667 U_control/U809
*3668 U_control/U81
*3669 U_control/U810
*3670 U_control/U811
*3671 U_control/U812
*3672 U_control/U813
*3673 U_control/U814
*3674 U_control/U815
*3675 U_control/U816
*3676 U_control/U817
*3677 U_control/U818
*3678 U_control/U819
*3679 U_control/U82
*3680 U_control/U820
*3681 U_control/U821
*3682 U_control/U822
*3683 U_control/U823
*3684 U_control/U824
*3685 U_control/U825
*3686 U_control/U826
*3687 U_control/U827
*3688 U_control/U83
*3689 U_control/U84
*3690 U_control/U85
*3691 U_control/U86
*3692 U_control/U87
*3693 U_control/U88
*3694 U_control/U89
*3695 U_control/U9
*3696 U_control/U90
*3697 U_control/U91
*3698 U_control/U92
*3699 U_control/U93
*3700 U_control/U94
*3701 U_control/U95
*3702 U_control/U96
*3703 U_control/U97
*3704 U_control/U98
*3705 U_control/U99
*3706 U_control/a_addr_reg_0_
*3707 U_control/a_addr_reg_0__U4
*3708 U_control/a_addr_reg_1_
*3709 U_control/a_addr_reg_2_
*3710 U_control/a_addr_reg_3_
*3711 U_control/a_addr_reg_3__U4
*3712 U_control/a_src_reg_0_
*3713 U_control/a_src_reg_0__U4
*3714 U_control/addr_op_reg_0_
*3715 U_control/addr_op_reg_0__U4
*3716 U_control/addr_op_reg_1_
*3717 U_control/addr_op_reg_1__U4
*3718 U_control/addr_op_reg_2_
*3719 U_control/addr_op_reg_2__U4
*3720 U_control/addr_op_reg_3_
*3721 U_control/addr_op_reg_3__U4
*3722 U_control/alu_cmd_reg_0_
*3723 U_control/alu_cmd_reg_0__U4
*3724 U_control/alu_cmd_reg_1_
*3725 U_control/alu_cmd_reg_1__U4
*3726 U_control/alu_cmd_reg_2_
*3727 U_control/alu_cmd_reg_2__U4
*3728 U_control/alu_cmd_reg_3_
*3729 U_control/alu_cmd_reg_3__U4
*3730 U_control/b_addr_reg_0_
*3731 U_control/b_addr_reg_0__U4
*3732 U_control/b_addr_reg_1_
*3733 U_control/b_addr_reg_1__U4
*3734 U_control/b_addr_reg_2_
*3735 U_control/b_addr_reg_2__U4
*3736 U_control/b_addr_reg_3_
*3737 U_control/b_addr_reg_3__U4
*3738 U_control/b_src_reg_0_
*3739 U_control/b_src_reg_0__U4
*3740 U_control/b_src_reg_1_
*3741 U_control/b_src_reg_1__U4
*3742 U_control/carry_src_reg_0_
*3743 U_control/carry_src_reg_1_
*3744 U_control/carry_src_reg_2_
*3745 U_control/carry_src_reg_2__U4
*3746 U_control/data_op_reg_0_
*3747 U_control/data_op_reg_0__U4
*3748 U_control/data_op_reg_1_
*3749 U_control/data_op_reg_1__U4
*3750 U_control/data_op_reg_2_
*3751 U_control/data_op_reg_2__U4
*3752 U_control/div_reg_reg
*3753 U_control/flag_op_reg_0_
*3754 U_control/flag_op_reg_0__U4
*3755 U_control/flag_op_reg_1_
*3756 U_control/flag_op_reg_1__U4
*3757 U_control/flag_op_reg_2_
*3758 U_control/flag_op_reg_2__U4
*3759 U_control/inc_pc_reg_0_
*3760 U_control/inc_pc_reg_0__U4
*3761 U_control/inc_pc_reg_1_
*3762 U_control/inc_pc_reg_1__U4
*3763 U_control/int_processing_reg
*3764 U_control/int_processing_reg_U4
*3765 U_control/int_reg_reg
*3766 U_control/int_type_reg_0_
*3767 U_control/int_type_reg_1_
*3768 U_control/invert_b_reg
*3769 U_control/invert_b_reg_U4
*3770 U_control/lu_op_reg
*3771 U_control/muldiv_op_reg_0_
*3772 U_control/muldiv_op_reg_0__U4
*3773 U_control/muldiv_op_reg_1_
*3774 U_control/muldiv_op_reg_1__U4
*3775 U_control/muldiv_op_reg_2_
*3776 U_control/muldiv_op_reg_2__U4
*3777 U_control/muldiv_op_reg_3_
*3778 U_control/muldiv_op_reg_3__U4
*3779 U_control/muldiv_op_reg_4_
*3780 U_control/muldiv_op_reg_4__U4
*3781 U_control/muldiv_op_reg_5_
*3782 U_control/muldiv_op_reg_5__U4
*3783 U_control/nmi_reg_reg
*3784 U_control/opcode_op_d_reg_2_
*3785 U_control/opcode_op_d_reg_2__U4
*3786 U_control/opcode_op_d_reg_3_
*3787 U_control/opcode_op_d_reg_3__U4
*3788 U_control/opcode_tmp_reg_0_
*3789 U_control/opcode_tmp_reg_0__U4
*3790 U_control/opcode_tmp_reg_1_
*3791 U_control/opcode_tmp_reg_1__U4
*3792 U_control/opcode_tmp_reg_2_
*3793 U_control/opcode_tmp_reg_2__U4
*3794 U_control/opcode_tmp_reg_3_
*3795 U_control/opcode_tmp_reg_3__U4
*3796 U_control/opcode_tmp_reg_4_
*3797 U_control/opcode_tmp_reg_4__U4
*3798 U_control/opcode_tmp_reg_5_
*3799 U_control/opcode_tmp_reg_5__U4
*3800 U_control/opcode_tmp_reg_6_
*3801 U_control/opcode_tmp_reg_6__U4
*3802 U_control/opcode_tmp_reg_7_
*3803 U_control/opcode_tmp_reg_7__U4
*3804 U_control/state_reg_0_
*3805 U_control/state_reg_0__U4
*3806 U_control/state_reg_1_
*3807 U_control/state_reg_1__U4
*3808 U_control/state_reg_2_
*3809 U_control/state_reg_2__U4
*3810 U_control/state_reg_3_
*3811 U_control/state_reg_3__U4
*3812 U_control/w_addr_reg_0_
*3813 U_control/w_addr_reg_0__U4
*3814 U_control/w_addr_reg_1_
*3815 U_control/w_addr_reg_1__U4
*3816 U_control/w_addr_reg_2_
*3817 U_control/w_addr_reg_3_
*3818 U_control/w_addr_reg_3__U4
*3819 U_control/wr_reg_reg
*3820 U_control/wr_reg_reg_U4
*3821 U_regb_biu/U1
*3822 U_regb_biu/U10
*3823 U_regb_biu/U100
*3824 U_regb_biu/U101
*3825 U_regb_biu/U102
*3826 U_regb_biu/U103
*3827 U_regb_biu/U104
*3828 U_regb_biu/U105
*3829 U_regb_biu/U106
*3830 U_regb_biu/U107
*3831 U_regb_biu/U108
*3832 U_regb_biu/U109
*3833 U_regb_biu/U11
*3834 U_regb_biu/U110
*3835 U_regb_biu/U111
*3836 U_regb_biu/U112
*3837 U_regb_biu/U113
*3838 U_regb_biu/U114
*3839 U_regb_biu/U115
*3840 U_regb_biu/U116
*3841 U_regb_biu/U117
*3842 U_regb_biu/U118
*3843 U_regb_biu/U119
*3844 U_regb_biu/U12
*3845 U_regb_biu/U120
*3846 U_regb_biu/U121
*3847 U_regb_biu/U122
*3848 U_regb_biu/U123
*3849 U_regb_biu/U124
*3850 U_regb_biu/U125
*3851 U_regb_biu/U126
*3852 U_regb_biu/U127
*3853 U_regb_biu/U128
*3854 U_regb_biu/U129
*3855 U_regb_biu/U13
*3856 U_regb_biu/U130
*3857 U_regb_biu/U131
*3858 U_regb_biu/U132
*3859 U_regb_biu/U133
*3860 U_regb_biu/U134
*3861 U_regb_biu/U135
*3862 U_regb_biu/U136
*3863 U_regb_biu/U137
*3864 U_regb_biu/U138
*3865 U_regb_biu/U139
*3866 U_regb_biu/U14
*3867 U_regb_biu/U140
*3868 U_regb_biu/U141
*3869 U_regb_biu/U142
*3870 U_regb_biu/U143
*3871 U_regb_biu/U144
*3872 U_regb_biu/U145
*3873 U_regb_biu/U146
*3874 U_regb_biu/U147
*3875 U_regb_biu/U148
*3876 U_regb_biu/U149
*3877 U_regb_biu/U15
*3878 U_regb_biu/U150
*3879 U_regb_biu/U151
*3880 U_regb_biu/U152
*3881 U_regb_biu/U153
*3882 U_regb_biu/U154
*3883 U_regb_biu/U155
*3884 U_regb_biu/U156
*3885 U_regb_biu/U157
*3886 U_regb_biu/U158
*3887 U_regb_biu/U159
*3888 U_regb_biu/U16
*3889 U_regb_biu/U160
*3890 U_regb_biu/U161
*3891 U_regb_biu/U162
*3892 U_regb_biu/U163
*3893 U_regb_biu/U164
*3894 U_regb_biu/U165
*3895 U_regb_biu/U166
*3896 U_regb_biu/U167
*3897 U_regb_biu/U168
*3898 U_regb_biu/U169
*3899 U_regb_biu/U17
*3900 U_regb_biu/U170
*3901 U_regb_biu/U171
*3902 U_regb_biu/U172
*3903 U_regb_biu/U173
*3904 U_regb_biu/U174
*3905 U_regb_biu/U175
*3906 U_regb_biu/U176
*3907 U_regb_biu/U177
*3908 U_regb_biu/U178
*3909 U_regb_biu/U179
*3910 U_regb_biu/U18
*3911 U_regb_biu/U180
*3912 U_regb_biu/U181
*3913 U_regb_biu/U182
*3914 U_regb_biu/U183
*3915 U_regb_biu/U184
*3916 U_regb_biu/U185
*3917 U_regb_biu/U186
*3918 U_regb_biu/U187
*3919 U_regb_biu/U188
*3920 U_regb_biu/U189
*3921 U_regb_biu/U19
*3922 U_regb_biu/U190
*3923 U_regb_biu/U191
*3924 U_regb_biu/U192
*3925 U_regb_biu/U193
*3926 U_regb_biu/U194
*3927 U_regb_biu/U195
*3928 U_regb_biu/U196
*3929 U_regb_biu/U197
*3930 U_regb_biu/U198
*3931 U_regb_biu/U199
*3932 U_regb_biu/U2
*3933 U_regb_biu/U20
*3934 U_regb_biu/U200
*3935 U_regb_biu/U201
*3936 U_regb_biu/U202
*3937 U_regb_biu/U203
*3938 U_regb_biu/U204
*3939 U_regb_biu/U205
*3940 U_regb_biu/U206
*3941 U_regb_biu/U207
*3942 U_regb_biu/U208
*3943 U_regb_biu/U209
*3944 U_regb_biu/U21
*3945 U_regb_biu/U210
*3946 U_regb_biu/U211
*3947 U_regb_biu/U212
*3948 U_regb_biu/U213
*3949 U_regb_biu/U214
*3950 U_regb_biu/U215
*3951 U_regb_biu/U216
*3952 U_regb_biu/U217
*3953 U_regb_biu/U218
*3954 U_regb_biu/U219
*3955 U_regb_biu/U22
*3956 U_regb_biu/U220
*3957 U_regb_biu/U221
*3958 U_regb_biu/U222
*3959 U_regb_biu/U223
*3960 U_regb_biu/U224
*3961 U_regb_biu/U225
*3962 U_regb_biu/U226
*3963 U_regb_biu/U227
*3964 U_regb_biu/U228
*3965 U_regb_biu/U229
*3966 U_regb_biu/U23
*3967 U_regb_biu/U230
*3968 U_regb_biu/U231