*SPEF "IEEE 1481-1999"
*DESIGN "RISC8_routed"
*DATE "Mon May 30 16:21:45 2022"
*VENDOR "Synopsys Inc."
*PROGRAM "StarRC"
*VERSION "O-2018.06-SP4"
*DESIGN_FLOW "PIN_CAP NONE" "NAME_SCOPE LOCAL"
*DIVIDER /
*DELIMITER :
*BUS_DELIMITER []
*T_UNIT 1.0 NS
*C_UNIT 1.0 FF
*R_UNIT 1.0 OHM
*L_UNIT 1.0 HENRY

// COMMENTS

// OPERATING_TEMPERATURE 25
// GLOBAL_TEMPERATURE 25
// TCAD_GRD_FILE ../saed32nm_1p9m_nominal.nxtgrd
//   TCAD_TIME_STAMP Wed Mar 16 14:34:54 2011
//   TCADGRD_VERSION 72
// galaxy_comments_begin
//   local_nodeid
// galaxy_comments_end

*NAME_MAP
*3171 ie
*3172 iack
*3173 ifetch
*3174 write
*3175 cycle
*3176 scan_mode
*3177 scan_en
*3178 scan_in
*3179 ready
*3180 int
*3181 nmi
*3182 rst_n
*3183 clk
*3184 data_in[7]
*3185 data_in[6]
*3186 data_in[5]
*3187 data_in[4]
*3188 data_in[3]
*3189 data_in[2]
*3190 data_in[1]
*3191 data_in[0]
*3192 data_out[7]
*3193 data_out[6]
*3194 data_out[5]
*3195 data_out[4]
*3196 data_out[3]
*3197 data_out[2]
*3198 data_out[1]
*3199 data_out[0]
*3200 address[15]
*3201 address[14]
*3202 address[13]
*3203 address[12]
*3204 address[11]
*3205 address[10]
*3206 address[9]
*3207 address[8]
*3208 address[7]
*3209 address[6]
*3210 address[5]
*3211 address[4]
*3212 address[3]
*3213 address[2]
*3214 address[1]
*3215 address[0]
*3216 U1
*3217 U10
*3218 U11
*3219 U12
*3220 U13
*3221 U14
*3222 U15
*3223 U16
*3224 U17
*3225 U18
*3226 U19
*3227 U2
*3228 U20
*3229 U21
*3230 U22
*3231 U23
*3232 U24
*3233 U25
*3234 U26
*3235 U27
*3236 U28
*3237 U29
*3238 U3
*3239 U30
*3240 U31
*3241 U32
*3242 U33
*3243 U34
*3244 U35
*3245 U36
*3246 U37
*3247 U38
*3248 U39
*3249 U4
*3250 U40
*3251 U41
*3252 U42
*3253 U43
*3254 U44
*3255 U45
*3256 U46
*3257 U47
*3258 U48
*3259 U49
*3260 U5
*3261 U50
*3262 U51
*3263 U52
*3264 U53
*3265 U54
*3266 U55
*3267 U56
*3268 U57
*3269 U6
*3270 U7
*3271 U8
*3272 U9
*3273 U_alu/U0/U1
*3274 U_alu/U0/U10
*3275 U_alu/U0/U11
*3276 U_alu/U0/U12
*3277 U_alu/U0/U13
*3278 U_alu/U0/U14
*3279 U_alu/U0/U15
*3280 U_alu/U0/U16
*3281 U_alu/U0/U17
*3282 U_alu/U0/U18
*3283 U_alu/U0/U19
*3284 U_alu/U0/U2
*3285 U_alu/U0/U21
*3286 U_alu/U0/U22
*3287 U_alu/U0/U23
*3288 U_alu/U0/U24
*3289 U_alu/U0/U25
*3290 U_alu/U0/U26
*3291 U_alu/U0/U27
*3292 U_alu/U0/U28
*3293 U_alu/U0/U29
*3294 U_alu/U0/U3
*3295 U_alu/U0/U31
*3296 U_alu/U0/U33
*3297 U_alu/U0/U34
*3298 U_alu/U0/U35
*3299 U_alu/U0/U36
*3300 U_alu/U0/U37
*3301 U_alu/U0/U38
*3302 U_alu/U0/U39
*3303 U_alu/U0/U4
*3304 U_alu/U0/U40
*3305 U_alu/U0/U41
*3306 U_alu/U0/U42
*3307 U_alu/U0/U43
*3308 U_alu/U0/U44
*3309 U_alu/U0/U45
*3310 U_alu/U0/U46
*3311 U_alu/U0/U47
*3312 U_alu/U0/U48
*3313 U_alu/U0/U49
*3314 U_alu/U0/U5
*3315 U_alu/U0/U50
*3316 U_alu/U0/U52
*3317 U_alu/U0/U53
*3318 U_alu/U0/U54
*3319 U_alu/U0/U55
*3320 U_alu/U0/U56
*3321 U_alu/U0/U57
*3322 U_alu/U0/U58
*3323 U_alu/U0/U59
*3324 U_alu/U0/U6
*3325 U_alu/U0/U60
*3326 U_alu/U0/U61
*3327 U_alu/U0/U63
*3328 U_alu/U0/U64
*3329 U_alu/U0/U65
*3330 U_alu/U0/U66
*3331 U_alu/U0/U67
*3332 U_alu/U0/U68
*3333 U_alu/U0/U69
*3334 U_alu/U0/U7
*3335 U_alu/U0/U70
*3336 U_alu/U0/U8
*3337 U_alu/U0/U9
*3338 U_alu/U1
*3339 U_alu/U10
*3340 U_alu/U100
*3341 U_alu/U101
*3342 U_alu/U102
*3343 U_alu/U103
*3344 U_alu/U104
*3345 U_alu/U105
*3346 U_alu/U106
*3347 U_alu/U107
*3348 U_alu/U108
*3349 U_alu/U109
*3350 U_alu/U11
*3351 U_alu/U110
*3352 U_alu/U111
*3353 U_alu/U112
*3354 U_alu/U113
*3355 U_alu/U114
*3356 U_alu/U115
*3357 U_alu/U116
*3358 U_alu/U117
*3359 U_alu/U118
*3360 U_alu/U119
*3361 U_alu/U12
*3362 U_alu/U120
*3363 U_alu/U121
*3364 U_alu/U122
*3365 U_alu/U123
*3366 U_alu/U124
*3367 U_alu/U125
*3368 U_alu/U126
*3369 U_alu/U127
*3370 U_alu/U128
*3371 U_alu/U129
*3372 U_alu/U13
*3373 U_alu/U130
*3374 U_alu/U131
*3375 U_alu/U132
*3376 U_alu/U133
*3377 U_alu/U134
*3378 U_alu/U135
*3379 U_alu/U136
*3380 U_alu/U137
*3381 U_alu/U138
*3382 U_alu/U139
*3383 U_alu/U14
*3384 U_alu/U140
*3385 U_alu/U141
*3386 U_alu/U142
*3387 U_alu/U143
*3388 U_alu/U144
*3389 U_alu/U145
*3390 U_alu/U146
*3391 U_alu/U147
*3392 U_alu/U148
*3393 U_alu/U149
*3394 U_alu/U15
*3395 U_alu/U150
*3396 U_alu/U151
*3397 U_alu/U152
*3398 U_alu/U153
*3399 U_alu/U154
*3400 U_alu/U155
*3401 U_alu/U156
*3402 U_alu/U157
*3403 U_alu/U158
*3404 U_alu/U159
*3405 U_alu/U16
*3406 U_alu/U160
*3407 U_alu/U161
*3408 U_alu/U162
*3409 U_alu/U163
*3410 U_alu/U164
*3411 U_alu/U165
*3412 U_alu/U166
*3413 U_alu/U167
*3414 U_alu/U168
*3415 U_alu/U169
*3416 U_alu/U17
*3417 U_alu/U170
*3418 U_alu/U171
*3419 U_alu/U172
*3420 U_alu/U173
*3421 U_alu/U174
*3422 U_alu/U175
*3423 U_alu/U176
*3424 U_alu/U177
*3425 U_alu/U178
*3426 U_alu/U179
*3427 U_alu/U18
*3428 U_alu/U180
*3429 U_alu/U181
*3430 U_alu/U182
*3431 U_alu/U183
*3432 U_alu/U184
*3433 U_alu/U185
*3434 U_alu/U186
*3435 U_alu/U187
*3436 U_alu/U188
*3437 U_alu/U189
*3438 U_alu/U19
*3439 U_alu/U190
*3440 U_alu/U191
*3441 U_alu/U192
*3442 U_alu/U193
*3443 U_alu/U194
*3444 U_alu/U195
*3445 U_alu/U196
*3446 U_alu/U197
*3447 U_alu/U198
*3448 U_alu/U199
*3449 U_alu/U2
*3450 U_alu/U20
*3451 U_alu/U200
*3452 U_alu/U201
*3453 U_alu/U202
*3454 U_alu/U203
*3455 U_alu/U204
*3456 U_alu/U205
*3457 U_alu/U206
*3458 U_alu/U207
*3459 U_alu/U208
*3460 U_alu/U209
*3461 U_alu/U21
*3462 U_alu/U210
*3463 U_alu/U211
*3464 U_alu/U212
*3465 U_alu/U213
*3466 U_alu/U214
*3467 U_alu/U215
*3468 U_alu/U216
*3469 U_alu/U217
*3470 U_alu/U218
*3471 U_alu/U219
*3472 U_alu/U22
*3473 U_alu/U220
*3474 U_alu/U221
*3475 U_alu/U222
*3476 U_alu/U223
*3477 U_alu/U224
*3478 U_alu/U225
*3479 U_alu/U226
*3480 U_alu/U227
*3481 U_alu/U228
*3482 U_alu/U229
*3483 U_alu/U23
*3484 U_alu/U230
*3485 U_alu/U231
*3486 U_alu/U232
*3487 U_alu/U233
*3488 U_alu/U234
*3489 U_alu/U235
*3490 U_alu/U236
*3491 U_alu/U237
*3492 U_alu/U238
*3493 U_alu/U24
*3494 U_alu/U240
*3495 U_alu/U241
*3496 U_alu/U242
*3497 U_alu/U243
*3498 U_alu/U244
*3499 U_alu/U245
*3500 U_alu/U246
*3501 U_alu/U247
*3502 U_alu/U248
*3503 U_alu/U249
*3504 U_alu/U25
*3505 U_alu/U250
*3506 U_alu/U253
*3507 U_alu/U254
*3508 U_alu/U255
*3509 U_alu/U256
*3510 U_alu/U257
*3511 U_alu/U258
*3512 U_alu/U259
*3513 U_alu/U26
*3514 U_alu/U260
*3515 U_alu/U261
*3516 U_alu/U262
*3517 U_alu/U263
*3518 U_alu/U264
*3519 U_alu/U265
*3520 U_alu/U266
*3521 U_alu/U268
*3522 U_alu/U269
*3523 U_alu/U27
*3524 U_alu/U270
*3525 U_alu/U271
*3526 U_alu/U272
*3527 U_alu/U273
*3528 U_alu/U274
*3529 U_alu/U276
*3530 U_alu/U277
*3531 U_alu/U278
*3532 U_alu/U279
*3533 U_alu/U28
*3534 U_alu/U280
*3535 U_alu/U281
*3536 U_alu/U283
*3537 U_alu/U284
*3538 U_alu/U285
*3539 U_alu/U286
*3540 U_alu/U287
*3541 U_alu/U288
*3542 U_alu/U289
*3543 U_alu/U29
*3544 U_alu/U290
*3545 U_alu/U291
*3546 U_alu/U292
*3547 U_alu/U293
*3548 U_alu/U294
*3549 U_alu/U295
*3550 U_alu/U296
*3551 U_alu/U297
*3552 U_alu/U298
*3553 U_alu/U299
*3554 U_alu/U3
*3555 U_alu/U30
*3556 U_alu/U300
*3557 U_alu/U301
*3558 U_alu/U302
*3559 U_alu/U303
*3560 U_alu/U304
*3561 U_alu/U305
*3562 U_alu/U306
*3563 U_alu/U307
*3564 U_alu/U308
*3565 U_alu/U309
*3566 U_alu/U31
*3567 U_alu/U310
*3568 U_alu/U311
*3569 U_alu/U312
*3570 U_alu/U314
*3571 U_alu/U315
*3572 U_alu/U316
*3573 U_alu/U317
*3574 U_alu/U318
*3575 U_alu/U319
*3576 U_alu/U32
*3577 U_alu/U320
*3578 U_alu/U321
*3579 U_alu/U322
*3580 U_alu/U323
*3581 U_alu/U324
*3582 U_alu/U325
*3583 U_alu/U326
*3584 U_alu/U327
*3585 U_alu/U328
*3586 U_alu/U329
*3587 U_alu/U33
*3588 U_alu/U330
*3589 U_alu/U331
*3590 U_alu/U332
*3591 U_alu/U333
*3592 U_alu/U334
*3593 U_alu/U335
*3594 U_alu/U336
*3595 U_alu/U337
*3596 U_alu/U338
*3597 U_alu/U339
*3598 U_alu/U34
*3599 U_alu/U340
*3600 U_alu/U341
*3601 U_alu/U342
*3602 U_alu/U343
*3603 U_alu/U344
*3604 U_alu/U345
*3605 U_alu/U346
*3606 U_alu/U347
*3607 U_alu/U348
*3608 U_alu/U349
*3609 U_alu/U35
*3610 U_alu/U350
*3611 U_alu/U351
*3612 U_alu/U352
*3613 U_alu/U353
*3614 U_alu/U355
*3615 U_alu/U356
*3616 U_alu/U357
*3617 U_alu/U358
*3618 U_alu/U359
*3619 U_alu/U36
*3620 U_alu/U360
*3621 U_alu/U361
*3622 U_alu/U362
*3623 U_alu/U363
*3624 U_alu/U364
*3625 U_alu/U365
*3626 U_alu/U366
*3627 U_alu/U367
*3628 U_alu/U368
*3629 U_alu/U369
*3630 U_alu/U37
*3631 U_alu/U370
*3632 U_alu/U371
*3633 U_alu/U372
*3634 U_alu/U373
*3635 U_alu/U374
*3636 U_alu/U375
*3637 U_alu/U376
*3638 U_alu/U377
*3639 U_alu/U378
*3640 U_alu/U379
*3641 U_alu/U38
*3642 U_alu/U380
*3643 U_alu/U39
*3644 U_alu/U4
*3645 U_alu/U40
*3646 U_alu/U41
*3647 U_alu/U42
*3648 U_alu/U43
*3649 U_alu/U44
*3650 U_alu/U45
*3651 U_alu/U46
*3652 U_alu/U47
*3653 U_alu/U48
*3654 U_alu/U49
*3655 U_alu/U5
*3656 U_alu/U50
*3657 U_alu/U51
*3658 U_alu/U52
*3659 U_alu/U53
*3660 U_alu/U54
*3661 U_alu/U55
*3662 U_alu/U56
*3663 U_alu/U57
*3664 U_alu/U58
*3665 U_alu/U59
*3666 U_alu/U6
*3667 U_alu/U60
*3668 U_alu/U61
*3669 U_alu/U62
*3670 U_alu/U63
*3671 U_alu/U64
*3672 U_alu/U65
*3673 U_alu/U66
*3674 U_alu/U67
*3675 U_alu/U68
*3676 U_alu/U69
*3677 U_alu/U7
*3678 U_alu/U70
*3679 U_alu/U71
*3680 U_alu/U72
*3681 U_alu/U73
*3682 U_alu/U74
*3683 U_alu/U75
*3684 U_alu/U76
*3685 U_alu/U77
*3686 U_alu/U78
*3687 U_alu/U79
*3688 U_alu/U8
*3689 U_alu/U80
*3690 U_alu/U81
*3691 U_alu/U82
*3692 U_alu/U83
*3693 U_alu/U84
*3694 U_alu/U85
*3695 U_alu/U86
*3696 U_alu/U87
*3697 U_alu/U88
*3698 U_alu/U89
*3699 U_alu/U9
*3700 U_alu/U90
*3701 U_alu/U91
*3702 U_alu/U92
*3703 U_alu/U93
*3704 U_alu/U94
*3705 U_alu/U95
*3706 U_alu/U96
*3707 U_alu/U97
*3708 U_alu/U98
*3709 U_alu/U99
*3710 U_alu/a_reg_reg_0_
*3711 U_alu/a_reg_reg_1_
*3712 U_alu/a_reg_reg_2_
*3713 U_alu/a_reg_reg_3_
*3714 U_alu/a_reg_reg_4_
*3715 U_alu/a_reg_reg_5_
*3716 U_alu/a_reg_reg_6_
*3717 U_alu/a_reg_reg_7_
*3718 U_alu/p_reg_reg_0_
*3719 U_alu/p_reg_reg_1_
*3720 U_alu/p_reg_reg_2_
*3721 U_alu/p_reg_reg_3_
*3722 U_alu/p_reg_reg_4_
*3723 U_alu/p_reg_reg_5_
*3724 U_alu/p_reg_reg_6_
*3725 U_alu/p_reg_reg_7_
*3726 U_alu/p_reg_reg_8_
*3727 U_alu/save_a7_reg
*3728 U_alu/save_carry_reg
*3729 U_control/U1
*3730 U_control/U10
*3731 U_control/U100
*3732 U_control/U1001
*3733 U_control/U1002
*3734 U_control/U1003
*3735 U_control/U1004
*3736 U_control/U1005
*3737 U_control/U1006
*3738 U_control/U1007
*3739 U_control/U1008
*3740 U_control/U1009
*3741 U_control/U101
*3742 U_control/U1010
*3743 U_control/U1011
*3744 U_control/U1012
*3745 U_control/U1013
*3746 U_control/U1014
*3747 U_control/U1015
*3748 U_control/U1016
*3749 U_control/U1017
*3750 U_control/U1018
*3751 U_control/U1019
*3752 U_control/U102
*3753 U_control/U1020
*3754 U_control/U1021
*3755 U_control/U1022
*3756 U_control/U1023
*3757 U_control/U1024
*3758 U_control/U1025
*3759 U_control/U1026
*3760 U_control/U1027
*3761 U_control/U1028
*3762 U_control/U1029
*3763 U_control/U103
*3764 U_control/U1030
*3765 U_control/U1031
*3766 U_control/U1032
*3767 U_control/U1033
*3768 U_control/U1034
*3769 U_control/U1035
*3770 U_control/U1036
*3771 U_control/U1037
*3772 U_control/U1038
*3773 U_control/U1039
*3774 U_control/U104
*3775 U_control/U1040
*3776 U_control/U1041
*3777 U_control/U1042
*3778 U_control/U1043
*3779 U_control/U1044
*3780 U_control/U1045
*3781 U_control/U1046
*3782 U_control/U1048
*3783 U_control/U1049
*3784 U_control/U105
*3785 U_control/U1050
*3786 U_control/U1051
*3787 U_control/U1052
*3788 U_control/U1053
*3789 U_control/U1054
*3790 U_control/U1055
*3791 U_control/U1056
*3792 U_control/U106
*3793 U_control/U107
*3794 U_control/U108
*3795 U_control/U109
*3796 U_control/U11
*3797 U_control/U110
*3798 U_control/U111
*3799 U_control/U112
*3800 U_control/U113
*3801 U_control/U114
*3802 U_control/U115
*3803 U_control/U116
*3804 U_control/U117
*3805 U_control/U118
*3806 U_control/U119
*3807 U_control/U12
*3808 U_control/U120
*3809 U_control/U121
*3810 U_control/U122
*3811 U_control/U123
*3812 U_control/U124
*3813 U_control/U125
*3814 U_control/U126
*3815 U_control/U127
*3816 U_control/U128
*3817 U_control/U129
*3818 U_control/U13
*3819 U_control/U130
*3820 U_control/U131
*3821 U_control/U132
*3822 U_control/U133
*3823 U_control/U134
*3824 U_control/U135
*3825 U_control/U136
*3826 U_control/U137
*3827 U_control/U138
*3828 U_control/U139
*3829 U_control/U14
*3830 U_control/U140
*3831 U_control/U141
*3832 U_control/U142
*3833 U_control/U143
*3834 U_control/U144
*3835 U_control/U145
*3836 U_control/U146
*3837 U_control/U147
*3838 U_control/U148
*3839 U_control/U149
*3840 U_control/U15
*3841 U_control/U150
*3842 U_control/U151
*3843 U_control/U152
*3844 U_control/U153
*3845 U_control/U154
*3846 U_control/U155
*3847 U_control/U156
*3848 U_control/U157
*3849 U_control/U158
*3850 U_control/U159
*3851 U_control/U16
*3852 U_control/U160
*3853 U_control/U161
*3854 U_control/U162
*3855 U_control/U163
*3856 U_control/U164
*3857 U_control/U165
*3858 U_control/U166
*3859 U_control/U167
*3860 U_control/U168
*3861 U_control/U169
*3862 U_control/U17
*3863 U_control/U170
*3864 U_control/U171
*3865 U_control/U172
*3866 U_control/U173
*3867 U_control/U174
*3868 U_control/U175
*3869 U_control/U176
*3870 U_control/U177
*3871 U_control/U178
*3872 U_control/U179
*3873 U_control/U18
*3874 U_control/U180
*3875 U_control/U181
*3876 U_control/U182
*3877 U_control/U183
*3878 U_control/U184
*3879 U_control/U185
*3880 U_control/U186
*3881 U_control/U187
*3882 U_control/U188
*3883 U_control/U189
*3884 U_control/U19
*3885 U_control/U190
*3886 U_control/U191
*3887 U_control/U192
*3888 U_control/U193
*3889 U_control/U194
*3890 U_control/U195
*3891 U_control/U196
*3892 U_control/U197
*3893 U_control/U198
*3894 U_control/U199
*3895 U_control/U2
*3896 U_control/U20
*3897 U_control/U200
*3898 U_control/U201
*3899 U_control/U202
*3900 U_control/U203
*3901 U_control/U204
*3902 U_control/U205
*3903 U_control/U206
*3904 U_control/U207
*3905 U_control/U208
*3906 U_control/U209
*3907 U_control/U21
*3908 U_control/U210
*3909 U_control/U211
*3910 U_control/U212
*3911 U_control/U213
*3912 U_control/U214
*3913 U_control/U215
*3914 U_control/U216
*3915 U_control/U217
*3916 U_control/U218
*3917 U_control/U219
*3918 U_control/U22
*3919 U_control/U220
*3920 U_control/U221
*3921 U_control/U222
*3922 U_control/U223
*3923 U_control/U224
*3924 U_control/U225
*3925 U_control/U226
*3926 U_control/U227
*3927 U_control/U228
*3928 U_control/U229
*3929 U_control/U23
*3930 U_control/U230
*3931 U_control/U231
*3932 U_control/U232
*3933 U_control/U233
*3934 U_control/U234
*3935 U_control/U235
*3936 U_control/U236
*3937 U_control/U237
*3938 U_control/U238
*3939 U_control/U239
*3940 U_control/U24
*3941 U_control/U240
*3942 U_control/U241
*3943 U_control/U242
*3944 U_control/U243
*3945 U_control/U244
*3946 U_control/U245
*3947 U_control/U246
*3948 U_control/U247
*3949 U_control/U248
*3950 U_control/U249
*3951 U_control/U25
*3952 U_control/U250
*3953 U_control/U251
*3954 U_control/U252
*3955 U_control/U253
*3956 U_control/U254
*3957 U_control/U255
*3958 U_control/U256
*3959 U_control/U257
*3960 U_control/U258
*3961 U_control/U259
*3962 U_control/U26
*3963 U_control/U260
*3964 U_control/U261
*3965 U_control/U262
*3966 U_control/U263
*3967 U_control/U264
*3968 U_control/U265
*3969 U_control/U266
*3970 U_control/U267
*3971 U_control/U268
*3972 U_control/U269
*3973 U_control/U27
*3974 U_control/U270
*3975 U_control/U271
*3976 U_control/U272
*3977 U_control/U273
*3978 U_control/U274
*3979 U_control/U275
*3980 U_control/U276
*3981 U_control/U277
*3982 U_control/U278
*3983 U_control/U279
*3984 U_control/U28
*3985 U_control/U280
*3986 U_control/U281
*3987 U_control/U282
*3988 U_control/U283
*3989 U_control/U284
*3990 U_control/U285
*3991 U_control/U286
*3992 U_control/U287
*3993 U_control/U288
*3994 U_control/U289
*3995 U_control/U29
*3996 U_control/U290
*3997 U_control/U291
*3998 U_control/U292
*3999 U_control/U293
*4000 U_control/U294
*4001 U_control/U295
*4002 U_control/U296
*4003 U_control/U297
*4004 U_control/U298
*4005 U_control/U299
*4006 U_control/U3
*4007 U_control/U30
*4008 U_control/U300
*4009 U_control/U301
*4010 U_control/U302
*4011 U_control/U303
*4012 U_control/U304
*4013 U_control/U305
*4014 U_control/U306
*4015 U_control/U307
*4016 U_control/U308
*4017 U_control/U309
*4018 U_control/U31
*4019 U_control/U310
*4020 U_control/U311
*4021 U_control/U312
*4022 U_control/U313
*4023 U_control/U314
*4024 U_control/U315
*4025 U_control/U316
*4026 U_control/U317
*4027 U_control/U318
*4028 U_control/U319
*4029 U_control/U32
*4030 U_control/U320
*4031 U_control/U321
*4032 U_control/U322
*4033 U_control/U323
*4034 U_control/U324
*4035 U_control/U325
*4036 U_control/U326
*4037 U_control/U327
*4038 U_control/U328
*4039 U_control/U329
*4040 U_control/U33
*4041 U_control/U330
*4042 U_control/U331
*4043 U_control/U332
*4044 U_control/U333
*4045 U_control/U334
*4046 U_control/U335
*4047 U_control/U336
*4048 U_control/U337
*4049 U_control/U338
*4050 U_control/U339
*4051 U_control/U34
*4052 U_control/U340
*4053 U_control/U341
*4054 U_control/U342
*4055 U_control/U343
*4056 U_control/U344
*4057 U_control/U345
*4058 U_control/U346
*4059 U_control/U347
*4060 U_control/U348
*4061 U_control/U349
*4062 U_control/U35
*4063 U_control/U350
*4064 U_control/U351
*4065 U_control/U352
*4066 U_control/U353
*4067 U_control/U354
*4068 U_control/U355
*4069 U_control/U356
*4070 U_control/U357
*4071 U_control/U358
*4072 U_control/U359
*4073 U_control/U36
*4074 U_control/U360
*4075 U_control/U361
*4076 U_control/U362
*4077 U_control/U363
*4078 U_control/U364
*4079 U_control/U365
*4080 U_control/U366
*4081 U_control/U367
*4082 U_control/U368
*4083 U_control/U369
*4084 U_control/U37
*4085 U_control/U370
*4086 U_control/U371
*4087 U_control/U372
*4088 U_control/U373
*4089 U_control/U374
*4090 U_control/U375
*4091 U_control/U376
*4092 U_control/U377
*4093 U_control/U378
*4094 U_control/U379
*4095 U_control/U38
*4096 U_control/U380
*4097 U_control/U381
*4098 U_control/U382
*4099 U_control/U383
*4100 U_control/U384
*4101 U_control/U385
*4102 U_control/U386
*4103 U_control/U387
*4104 U_control/U388
*4105 U_control/U389
*4106 U_control/U39
*4107 U_control/U390
*4108 U_control/U391
*4109 U_control/U392
*4110 U_control/U393
*4111 U_control/U394
*4112 U_control/U395
*4113 U_control/U396
*4114 U_control/U397
*4115 U_control/U398
*4116 U_control/U399
*4117 U_control/U4
*4118 U_control/U40
*4119 U_control/U400
*4120 U_control/U401
*4121 U_control/U402
*4122 U_control/U403
*4123 U_control/U404
*4124 U_control/U405
*4125 U_control/U406
*4126 U_control/U407
*4127 U_control/U408
*4128 U_control/U409
*4129 U_control/U41
*4130 U_control/U410
*4131 U_control/U411
*4132 U_control/U412
*4133 U_control/U413
*4134 U_control/U414
*4135 U_control/U415
*4136 U_control/U416
*4137 U_control/U417
*4138 U_control/U418
*4139 U_control/U419
*4140 U_control/U42
*4141 U_control/U420
*4142 U_control/U421
*4143 U_control/U422
*4144 U_control/U423
*4145 U_control/U424
*4146 U_control/U425
*4147 U_control/U426
*4148 U_control/U427
*4149 U_control/U428
*4150 U_control/U429
*4151 U_control/U43
*4152 U_control/U430
*4153 U_control/U431
*4154 U_control/U432
*4155 U_control/U433
*4156 U_control/U434
*4157 U_control/U435
*4158 U_control/U437
*4159 U_control/U438
*4160 U_control/U439
*4161 U_control/U44
*4162 U_control/U440
*4163 U_control/U441
*4164 U_control/U442
*4165 U_control/U443
*4166 U_control/U444
*4167 U_control/U445
*4168 U_control/U446
*4169 U_control/U447
*4170 U_control/U448
*4171 U_control/U449
*4172 U_control/U45
*4173 U_control/U452
*4174 U_control/U453
*4175 U_control/U454
*4176 U_control/U455
*4177 U_control/U456
*4178 U_control/U457
*4179 U_control/U458
*4180 U_control/U459
*4181 U_control/U46
*4182 U_control/U460
*4183 U_control/U461
*4184 U_control/U462
*4185 U_control/U463
*4186 U_control/U464
*4187 U_control/U465
*4188 U_control/U466
*4189 U_control/U467
*4190 U_control/U469
*4191 U_control/U47
*4192 U_control/U470
*4193 U_control/U471
*4194 U_control/U472
*4195 U_control/U474
*4196 U_control/U477
*4197 U_control/U478
*4198 U_control/U479
*4199 U_control/U48
*4200 U_control/U480
*4201 U_control/U481
*4202 U_control/U482
*4203 U_control/U483
*4204 U_control/U484
*4205 U_control/U485
*4206 U_control/U486
*4207 U_control/U488
*4208 U_control/U489
*4209 U_control/U49
*4210 U_control/U490
*4211 U_control/U491
*4212 U_control/U492
*4213 U_control/U493
*4214 U_control/U494
*4215 U_control/U495
*4216 U_control/U496
*4217 U_control/U497
*4218 U_control/U5
*4219 U_control/U50
*4220 U_control/U502
*4221 U_control/U503
*4222 U_control/U504
*4223 U_control/U505
*4224 U_control/U506
*4225 U_control/U507
*4226 U_control/U508
*4227 U_control/U509
*4228 U_control/U51
*4229 U_control/U510
*4230 U_control/U511
*4231 U_control/U512
*4232 U_control/U513
*4233 U_control/U514
*4234 U_control/U515
*4235 U_control/U516
*4236 U_control/U517
*4237 U_control/U518
*4238 U_control/U519
*4239 U_control/U52
*4240 U_control/U520
*4241 U_control/U521
*4242 U_control/U522
*4243 U_control/U523
*4244 U_control/U524
*4245 U_control/U525
*4246 U_control/U526
*4247 U_control/U527
*4248 U_control/U528
*4249 U_control/U529
*4250 U_control/U53
*4251 U_control/U530
*4252 U_control/U531
*4253 U_control/U532
*4254 U_control/U533
*4255 U_control/U534
*4256 U_control/U535
*4257 U_control/U536
*4258 U_control/U537
*4259 U_control/U538
*4260 U_control/U539
*4261 U_control/U54
*4262 U_control/U540
*4263 U_control/U541
*4264 U_control/U542
*4265 U_control/U543
*4266 U_control/U544
*4267 U_control/U545
*4268 U_control/U546
*4269 U_control/U547
*4270 U_control/U548
*4271 U_control/U549
*4272 U_control/U55
*4273 U_control/U556
*4274 U_control/U557
*4275 U_control/U558
*4276 U_control/U559
*4277 U_control/U56
*4278 U_control/U560
*4279 U_control/U561
*4280 U_control/U562
*4281 U_control/U563
*4282 U_control/U564
*4283 U_control/U565
*4284 U_control/U566
*4285 U_control/U567
*4286 U_control/U568
*4287 U_control/U569
*4288 U_control/U57
*4289 U_control/U570
*4290 U_control/U571
*4291 U_control/U572
*4292 U_control/U573
*4293 U_control/U574
*4294 U_control/U575
*4295 U_control/U576
*4296 U_control/U577
*4297 U_control/U578
*4298 U_control/U579
*4299 U_control/U58
*4300 U_control/U580
*4301 U_control/U581
*4302 U_control/U582
*4303 U_control/U583
*4304 U_control/U584
*4305 U_control/U585
*4306 U_control/U586
*4307 U_control/U587
*4308 U_control/U588
*4309 U_control/U589
*4310 U_control/U59
*4311 U_control/U590
*4312 U_control/U591
*4313 U_control/U592
*4314 U_control/U593
*4315 U_control/U594
*4316 U_control/U595
*4317 U_control/U596
*4318 U_control/U597
*4319 U_control/U598
*4320 U_control/U599
*4321 U_control/U6
*4322 U_control/U60
*4323 U_control/U600
*4324 U_control/U601
*4325 U_control/U602
*4326 U_control/U603
*4327 U_control/U604
*4328 U_control/U605
*4329 U_control/U606
*4330 U_control/U607
*4331 U_control/U608
*4332 U_control/U609
*4333 U_control/U61
*4334 U_control/U610
*4335 U_control/U611
*4336 U_control/U612
*4337 U_control/U613
*4338 U_control/U614
*4339 U_control/U615
*4340 U_control/U616
*4341 U_control/U617
*4342 U_control/U618
*4343 U_control/U619
*4344 U_control/U62
*4345 U_control/U620
*4346 U_control/U621
*4347 U_control/U622
*4348 U_control/U623
*4349 U_control/U624
*4350 U_control/U625
*4351 U_control/U626
*4352 U_control/U627
*4353 U_control/U628
*4354 U_control/U629
*4355 U_control/U63
*4356 U_control/U630
*4357 U_control/U631
*4358 U_control/U632
*4359 U_control/U633
*4360 U_control/U634
*4361 U_control/U635
*4362 U_control/U636
*4363 U_control/U637
*4364 U_control/U638
*4365 U_control/U639
*4366 U_control/U64
*4367 U_control/U640
*4368 U_control/U641
*4369 U_control/U642
*4370 U_control/U643
*4371 U_control/U644
*4372 U_control/U645
*4373 U_control/U646
*4374 U_control/U647
*4375 U_control/U648
*4376 U_control/U649
*4377 U_control/U65
*4378 U_control/U650
*4379 U_control/U651
*4380 U_control/U652
*4381 U_control/U653
*4382 U_control/U654
*4383 U_control/U655
*4384 U_control/U656
*4385 U_control/U657
*4386 U_control/U658
*4387 U_control/U659
*4388 U_control/U66
*4389 U_control/U660
*4390 U_control/U661
*4391 U_control/U662
*4392 U_control/U663
*4393 U_control/U664
*4394 U_control/U665
*4395 U_control/U666
*4396 U_control/U667
*4397 U_control/U668
*4398 U_control/U669
*4399 U_control/U67
*4400 U_control/U670
*4401 U_control/U671
*4402 U_control/U672
*4403 U_control/U673
*4404 U_control/U674
*4405 U_control/U675
*4406 U_control/U676
*4407 U_control/U677
*4408 U_control/U678
*4409 U_control/U679
*4410 U_control/U68
*4411 U_control/U680
*4412 U_control/U681
*4413 U_control/U682
*4414 U_control/U683
*4415 U_control/U684
*4416 U_control/U685
*4417 U_control/U686
*4418 U_control/U687
*4419 U_control/U688
*4420 U_control/U689
*4421 U_control/U69
*4422 U_control/U690
*4423 U_control/U691
*4424 U_control/U692
*4425 U_control/U693
*4426 U_control/U694
*4427 U_control/U695
*4428 U_control/U696
*4429 U_control/U697
*4430 U_control/U698
*4431 U_control/U699
*4432 U_control/U7
*4433 U_control/U70
*4434 U_control/U700
*4435 U_control/U701
*4436 U_control/U702
*4437 U_control/U703
*4438 U_control/U704
*4439 U_control/U705
*4440 U_control/U706
*4441 U_control/U707
*4442 U_control/U708
*4443 U_control/U709
*4444 U_control/U71
*4445 U_control/U710
*4446 U_control/U711
*4447 U_control/U712
*4448 U_control/U713
*4449 U_control/U714
*4450 U_control/U715
*4451 U_control/U716
*4452 U_control/U717
*4453 U_control/U718
*4454 U_control/U719
*4455 U_control/U72
*4456 U_control/U720
*4457 U_control/U721
*4458 U_control/U722
*4459 U_control/U723
*4460 U_control/U724
*4461 U_control/U725
*4462 U_control/U726
*4463 U_control/U727
*4464 U_control/U73
*4465 U_control/U730
*4466 U_control/U731
*4467 U_control/U732
*4468 U_control/U733
*4469 U_control/U734
*4470 U_control/U735
*4471 U_control/U736
*4472 U_control/U737
*4473 U_control/U738
*4474 U_control/U739
*4475 U_control/U74
*4476 U_control/U741
*4477 U_control/U742
*4478 U_control/U743
*4479 U_control/U744
*4480 U_control/U746
*4481 U_control/U747
*4482 U_control/U748
*4483 U_control/U749
*4484 U_control/U75
*4485 U_control/U750
*4486 U_control/U751
*4487 U_control/U752
*4488 U_control/U753
*4489 U_control/U754
*4490 U_control/U755
*4491 U_control/U756
*4492 U_control/U757
*4493 U_control/U758
*4494 U_control/U759
*4495 U_control/U76
*4496 U_control/U760
*4497 U_control/U761
*4498 U_control/U762
*4499 U_control/U763
*4500 U_control/U764
*4501 U_control/U765
*4502 U_control/U766
*4503 U_control/U767
*4504 U_control/U768
*4505 U_control/U769
*4506 U_control/U77
*4507 U_control/U770
*4508 U_control/U771
*4509 U_control/U772
*4510 U_control/U773
*4511 U_control/U774
*4512 U_control/U775
*4513 U_control/U776
*4514 U_control/U777
*4515 U_control/U778
*4516 U_control/U779
*4517 U_control/U78
*4518 U_control/U780
*4519 U_control/U781
*4520 U_control/U782
*4521 U_control/U783
*4522 U_control/U784
*4523 U_control/U785
*4524 U_control/U786
*4525 U_control/U787
*4526 U_control/U788
*4527 U_control/U789
*4528 U_control/U79
*4529 U_control/U790
*4530 U_control/U791
*4531 U_control/U792
*4532 U_control/U793
*4533 U_control/U794
*4534 U_control/U795
*4535 U_control/U796
*4536 U_control/U797
*4537 U_control/U798
*4538 U_control/U799
*4539 U_control/U8
*4540 U_control/U80
*4541 U_control/U801
*4542 U_control/U802
*4543 U_control/U803
*4544 U_control/U804
*4545 U_control/U805
*4546 U_control/U806
*4547 U_control/U807
*4548 U_control/U808
*4549 U_control/U809
*4550 U_control/U81
*4551 U_control/U810
*4552 U_control/U811
*4553 U_control/U812
*4554 U_control/U813
*4555 U_control/U814
*4556 U_control/U815
*4557 U_control/U816
*4558 U_control/U817
*4559 U_control/U818
*4560 U_control/U819
*4561 U_control/U82
*4562 U_control/U820
*4563 U_control/U821
*4564 U_control/U822
*4565 U_control/U823
*4566 U_control/U824
*4567 U_control/U825
*4568 U_control/U826
*4569 U_control/U828
*4570 U_control/U829
*4571 U_control/U83
*4572 U_control/U830
*4573 U_control/U831
*4574 U_control/U832
*4575 U_control/U833
*4576 U_control/U834
*4577 U_control/U835
*4578 U_control/U836
*4579 U_control/U837
*4580 U_control/U838
*4581 U_control/U839
*4582 U_control/U84
*4583 U_control/U840
*4584 U_control/U841
*4585 U_control/U842
*4586 U_control/U844
*4587 U_control/U845
*4588 U_control/U846
*4589 U_control/U847
*4590 U_control/U848
*4591 U_control/U849
*4592 U_control/U85
*4593 U_control/U850
*4594 U_control/U851
*4595 U_control/U852
*4596 U_control/U853
*4597 U_control/U854
*4598 U_control/U855
*4599 U_control/U856
*4600 U_control/U857
*4601 U_control/U858
*4602 U_control/U859
*4603 U_control/U86
*4604 U_control/U860
*4605 U_control/U861
*4606 U_control/U862
*4607 U_control/U863
*4608 U_control/U864
*4609 U_control/U865
*4610 U_control/U866
*4611 U_control/U867
*4612 U_control/U868
*4613 U_control/U869
*4614 U_control/U87
*4615 U_control/U870
*4616 U_control/U871
*4617 U_control/U872
*4618 U_control/U873
*4619 U_control/U874
*4620 U_control/U875
*4621 U_control/U876
*4622 U_control/U877
*4623 U_control/U878
*4624 U_control/U879
*4625 U_control/U88
*4626 U_control/U880
*4627 U_control/U881
*4628 U_control/U882
*4629 U_control/U883
*4630 U_control/U884
*4631 U_control/U885
*4632 U_control/U886
*4633 U_control/U887
*4634 U_control/U888
*4635 U_control/U889
*4636 U_control/U89
*4637 U_control/U890
*4638 U_control/U891
*4639 U_control/U892
*4640 U_control/U893
*4641 U_control/U894
*4642 U_control/U895
*4643 U_control/U896
*4644 U_control/U897
*4645 U_control/U898
*4646 U_control/U899
*4647 U_control/U9
*4648 U_control/U90
*4649 U_control/U900
*4650 U_control/U901
*4651 U_control/U902
*4652 U_control/U903
*4653 U_control/U904
*4654 U_control/U905
*4655 U_control/U906
*4656 U_control/U907
*4657 U_control/U908
*4658 U_control/U909
*4659 U_control/U91
*4660 U_control/U910
*4661 U_control/U911
*4662 U_control/U912
*4663 U_control/U913
*4664 U_control/U914
*4665 U_control/U915
*4666 U_control/U916
*4667 U_control/U917
*4668 U_control/U918
*4669 U_control/U919
*4670 U_control/U92
*4671 U_control/U920
*4672 U_control/U921
*4673 U_control/U922
*4674 U_control/U923
*4675 U_control/U924
*4676 U_control/U925
*4677 U_control/U926
*4678 U_control/U927
*4679 U_control/U928
*4680 U_control/U929
*4681 U_control/U93
*4682 U_control/U930
*4683 U_control/U931
*4684 U_control/U932
*4685 U_control/U933
*4686 U_control/U934
*4687 U_control/U935
*4688 U_control/U936
*4689 U_control/U937
*4690 U_control/U938
*4691 U_control/U939
*4692 U_control/U94
*4693 U_control/U940
*4694 U_control/U941